

        *** GPGPU-Sim Simulator Version 3.2.2  [build 0] ***


GPGPU-Sim PTX: simulation mode 0 (can change with PTX_SIM_MODE_FUNC environment variable:
               1=functional simulation only, 0=detailed performance simulator)
GPGPU-Sim: Configuration options:

-network_mode                           1 # Interconnection network mode
-inter_config_file   config_fermi_islip.icnt # Interconnection network config file
-gpgpu_ptx_use_cuobjdump                    1 # Use cuobjdump to extract ptx and sass from binaries
-gpgpu_experimental_lib_support                    0 # Try to extract code from cuda libraries [Broken because of unknown cudaGetExportTable]
-gpgpu_ptx_convert_to_ptxplus                    0 # Convert SASS (native ISA) to ptxplus and run ptxplus
-gpgpu_ptx_force_max_capability                   20 # Force maximum compute capability
-gpgpu_ptx_inst_debug_to_file                    0 # Dump executed instructions' debug information to file
-gpgpu_ptx_inst_debug_file       inst_debug.txt # Executed instructions' debug output file
-gpgpu_ptx_inst_debug_thread_uid                    1 # Thread UID for executed instructions' debug output
-gpgpu_simd_model                       1 # 1 = post-dominator
-gpgpu_shader_core_pipeline              1536:32 # shader core pipeline config, i.e., {<nthread>:<warpsize>}
-gpgpu_tex_cache:l1  4:128:24,L:R:m:N:L,F:128:4,128:2 # per-shader L1 texture cache  (READ-ONLY) config  {<nsets>:<bsize>:<assoc>,<rep>:<wr>:<alloc>:<wr_alloc>,<mshr>:<N>:<merge>,<mq>:<rf>}
-gpgpu_const_cache:l1 64:64:2,L:R:f:N:L,A:2:32,4 # per-shader L1 constant memory cache  (READ-ONLY) config  {<nsets>:<bsize>:<assoc>,<rep>:<wr>:<alloc>:<wr_alloc>,<mshr>:<N>:<merge>,<mq>} 
-gpgpu_cache:il1     4:128:4,L:R:f:N:L,A:2:32,4 # shader L1 instruction cache config  {<nsets>:<bsize>:<assoc>,<rep>:<wr>:<alloc>:<wr_alloc>,<mshr>:<N>:<merge>,<mq>} 
-gpgpu_cache:dl1     64:128:4,L:L:m:N:H,A:32:8,8 # per-shader L1 data cache config  {<nsets>:<bsize>:<assoc>,<rep>:<wr>:<alloc>:<wr_alloc>,<mshr>:<N>:<merge>,<mq> | none}
-gpgpu_cache:dl1PrefL1                 none # per-shader L1 data cache config  {<nsets>:<bsize>:<assoc>,<rep>:<wr>:<alloc>:<wr_alloc>,<mshr>:<N>:<merge>,<mq> | none}
-gpgpu_cache:dl1PreShared                 none # per-shader L1 data cache config  {<nsets>:<bsize>:<assoc>,<rep>:<wr>:<alloc>:<wr_alloc>,<mshr>:<N>:<merge>,<mq> | none}
-gmem_skip_L1D                          0 # global memory access skip L1D cache (implements -Xptxas -dlcm=cg, default=no skip)
-gpgpu_perfect_mem                      0 # enable perfect memory mode (no cache miss)
-n_regfile_gating_group                    4 # group of lanes that should be read/written together)
-gpgpu_clock_gated_reg_file                    0 # enable clock gated reg file for power calculations
-gpgpu_clock_gated_lanes                    0 # enable clock gated lanes for power calculations
-gpgpu_shader_registers                32768 # Number of registers per shader core. Limits number of concurrent CTAs. (default 8192)
-gpgpu_shader_cta                       8 # Maximum number of concurrent CTAs in shader (default 8)
-gpgpu_num_cta_barriers                   16 # Maximum number of named barriers per CTA (default 16)
-gpgpu_n_clusters                      15 # number of processing clusters
-gpgpu_n_cores_per_cluster                    1 # number of simd cores per cluster
-gpgpu_n_cluster_ejection_buffer_size                    8 # number of packets in ejection buffer
-gpgpu_n_ldst_response_buffer_size                    2 # number of response packets in ld/st unit ejection buffer
-gpgpu_shmem_size                   16384 # Size of shared memory per shader core (default 16kB)
-gpgpu_shmem_size                   49152 # Size of shared memory per shader core (default 16kB)
-gpgpu_shmem_size_PrefL1                16384 # Size of shared memory per shader core (default 16kB)
-gpgpu_shmem_size_PrefShared                16384 # Size of shared memory per shader core (default 16kB)
-gpgpu_shmem_num_banks                   32 # Number of banks in the shared memory in each shader core (default 16)
-gpgpu_shmem_limited_broadcast                    0 # Limit shared memory to do one broadcast per cycle (default on)
-gpgpu_shmem_warp_parts                    1 # Number of portions a warp is divided into for shared memory bank conflict check 
-gpgpu_warpdistro_shader                   -1 # Specify which shader core to collect the warp size distribution from
-gpgpu_warp_issue_shader                    0 # Specify which shader core to collect the warp issue distribution from
-gpgpu_local_mem_map                    1 # Mapping from local memory space address to simulated GPU physical address space (default = enabled)
-gpgpu_num_reg_banks                   16 # Number of register banks (default = 8)
-gpgpu_reg_bank_use_warp_id                    0 # Use warp ID in mapping registers to banks (default = off)
-gpgpu_operand_collector_num_units_sp                    6 # number of collector units (default = 4)
-gpgpu_operand_collector_num_units_sfu                    8 # number of collector units (default = 4)
-gpgpu_operand_collector_num_units_mem                    2 # number of collector units (default = 2)
-gpgpu_operand_collector_num_units_gen                    0 # number of collector units (default = 0)
-gpgpu_operand_collector_num_in_ports_sp                    2 # number of collector unit in ports (default = 1)
-gpgpu_operand_collector_num_in_ports_sfu                    1 # number of collector unit in ports (default = 1)
-gpgpu_operand_collector_num_in_ports_mem                    1 # number of collector unit in ports (default = 1)
-gpgpu_operand_collector_num_in_ports_gen                    0 # number of collector unit in ports (default = 0)
-gpgpu_operand_collector_num_out_ports_sp                    2 # number of collector unit in ports (default = 1)
-gpgpu_operand_collector_num_out_ports_sfu                    1 # number of collector unit in ports (default = 1)
-gpgpu_operand_collector_num_out_ports_mem                    1 # number of collector unit in ports (default = 1)
-gpgpu_operand_collector_num_out_ports_gen                    0 # number of collector unit in ports (default = 0)
-gpgpu_coalesce_arch                   13 # Coalescing arch (default = 13, anything else is off for now)
-gpgpu_num_sched_per_core                    2 # Number of warp schedulers per core
-gpgpu_max_insn_issue_per_warp                    1 # Max number of instructions that can be issued per warp in one cycle by scheduler
-gpgpu_simt_core_sim_order                    1 # Select the simulation order of cores in a cluster (0=Fix, 1=Round-Robin)
-gpgpu_pipeline_widths        2,1,1,2,1,1,2 # Pipeline widths ID_OC_SP,ID_OC_SFU,ID_OC_MEM,OC_EX_SP,OC_EX_SFU,OC_EX_MEM,EX_WB
-gpgpu_num_sp_units                     2 # Number of SP units (default=1)
-gpgpu_num_sfu_units                    1 # Number of SF units (default=1)
-gpgpu_num_mem_units                    1 # Number if ldst units (default=1) WARNING: not hooked up to anything
-gpgpu_scheduler                      gto # Scheduler configuration: < lrr | gto | two_level_active > If two_level_active:<num_active_warps>:<inner_prioritization>:<outer_prioritization>For complete list of prioritization values see shader.h enum scheduler_prioritization_typeDefault: gto
-gpgpu_dram_scheduler                    1 # 0 = fifo, 1 = FR-FCFS (defaul)
-gpgpu_dram_partition_queues              8:8:8:8 # i2$:$2d:d2$:$2i
-l2_ideal                               0 # Use a ideal L2 cache that always hit
-gpgpu_cache:dl2     64:128:8,L:B:m:W:L,A:32:4,4:0,32 # unified banked L2 data cache config  {<nsets>:<bsize>:<assoc>,<rep>:<wr>:<alloc>:<wr_alloc>,<mshr>:<N>:<merge>,<mq>}
-gpgpu_cache:dl2_texture_only                    0 # L2 cache used for texture only
-gpgpu_n_mem                            6 # number of memory modules (e.g. memory controllers) in gpu
-gpgpu_n_sub_partition_per_mchannel                    2 # number of memory subpartition in each memory module
-gpgpu_n_mem_per_ctrlr                    2 # number of memory chips per memory controller
-gpgpu_memlatency_stat                   14 # track and display latency statistics 0x2 enables MC, 0x4 enables queue logs
-gpgpu_frfcfs_dram_sched_queue_size                   16 # 0 = unlimited (default); # entries per chip
-gpgpu_dram_return_queue_size                  116 # 0 = unlimited (default); # entries per chip
-gpgpu_dram_buswidth                    4 # default = 4 bytes (8 bytes per cycle at DDR)
-gpgpu_dram_burst_length                    8 # Burst length of each DRAM request (default = 4 data bus cycle)
-dram_data_command_freq_ratio                    4 # Frequency ratio between DRAM data bus and command bus (default = 2 times, i.e. DDR)
-gpgpu_dram_timing_opt nbk=16:CCD=2:RRD=6:RCD=12:RAS=28:RP=12:RC=40: CL=12:WL=4:CDLR=5:WR=12:nbkgrp=4:CCDL=3:RTPL=2 # DRAM timing parameters = {nbk:tCCD:tRRD:tRCD:tRAS:tRP:tRC:CL:WL:tCDLR:tWR:nbkgrp:tCCDL:tRTPL}
-rop_latency                          120 # ROP queue latency (default 85)
-dram_latency                         100 # DRAM latency (default 30)
-gpgpu_mem_addr_mapping dramid@8;00000000.00000000.00000000.00000000.0000RRRR.RRRRRRRR.BBBCCCCB.CCSSSSSS # mapping memory address to dram model {dramid@<start bit>;<memory address map>}
-gpgpu_mem_addr_test                    0 # run sweep test to check address mapping for aliased address
-gpgpu_mem_address_mask                    1 # 0 = old addressing mask, 1 = new addressing mask, 2 = new add. mask + flipped bank sel and chip sel bits
-gpuwattch_xml_file  gpuwattch_gtx480.xml # GPUWattch XML file
-power_simulation_enabled                    1 # Turn on power simulator (1=On, 0=Off)
-power_per_cycle_dump                    0 # Dump detailed power output each cycle
-power_trace_enabled                    0 # produce a file for the power trace (1=On, 0=Off)
-power_trace_zlevel                     6 # Compression level of the power trace output log (0=no comp, 9=highest)
-steady_power_levels_enabled                    0 # produce a file for the steady power levels (1=On, 0=Off)
-steady_state_definition                  8:4 # allowed deviation:number of samples
-gpgpu_max_cycle                        0 # terminates gpu simulation early (0 = no limit)
-gpgpu_max_insn                         0 # terminates gpu simulation early (0 = no limit)
-gpgpu_max_cta                          0 # terminates gpu simulation early (0 = no limit)
-gpgpu_runtime_stat                   500 # display runtime statistics such as dram utilization {<freq>:<flag>}
-liveness_message_freq                    1 # Minimum number of seconds between simulation liveness messages (0 = always print)
-gpgpu_flush_l1_cache                    0 # Flush L1 cache at the end of each kernel call
-gpgpu_flush_l2_cache                    0 # Flush L2 cache at the end of each kernel call
-gpgpu_deadlock_detect                    1 # Stop the simulation at deadlock (1=on (default), 0=off)
-gpgpu_ptx_instruction_classification                    0 # if enabled will classify ptx instruction types per kernel (Max 255 kernels now)
-gpgpu_ptx_sim_mode                     0 # Select between Performance (default) or Functional simulation (1)
-gpgpu_clock_domains 700.0:700.0:700.0:924.0 # Clock Domain Frequencies in MhZ {<Core Clock>:<ICNT Clock>:<L2 Clock>:<DRAM Clock>}
-gpgpu_max_concurrent_kernel                    8 # maximum kernels that can run concurrently on GPU
-gpgpu_cflog_interval                    0 # Interval between each snapshot in control flow logger
-visualizer_enabled                     0 # Turn on visualizer output (1=On, 0=Off)
-visualizer_outputfile                 NULL # Specifies the output log file for visualizer
-visualizer_zlevel                      6 # Compression level of the visualizer output log (0=no comp, 9=highest)
-trace_enabled                          0 # Turn on traces
-trace_components                    none # comma seperated list of traces to enable. Complete list found in trace_streams.tup. Default none
-trace_sampling_core                    0 # The core which is printed using CORE_DPRINTF. Default 0
-trace_sampling_memory_partition                   -1 # The memory partition which is printed using MEMPART_DPRINTF. Default -1 (i.e. all)
-enable_ptx_file_line_stats                    1 # Turn on PTX source line statistic profiling. (1 = On)
-ptx_line_stats_filename gpgpu_inst_stats.txt # Output file for PTX source line statistics.
-save_embedded_ptx                      0 # saves ptx files embedded in binary as <n>.ptx
-keep                                   0 # keep intermediate files created by GPGPU-Sim when interfacing with external programs
-gpgpu_ptx_save_converted_ptxplus                    0 # Saved converted ptxplus to a file
-ptx_opcode_latency_int         4,13,4,5,145 # Opcode latencies for integers <ADD,MAX,MUL,MAD,DIV>Default 1,1,19,25,145
-ptx_opcode_latency_fp          4,13,4,5,39 # Opcode latencies for single precision floating points <ADD,MAX,MUL,MAD,DIV>Default 1,1,1,1,30
-ptx_opcode_latency_dp         8,19,8,8,330 # Opcode latencies for double precision floating points <ADD,MAX,MUL,MAD,DIV>Default 8,8,8,8,335
-ptx_opcode_initiation_int            1,2,2,1,8 # Opcode initiation intervals for integers <ADD,MAX,MUL,MAD,DIV>Default 1,1,4,4,32
-ptx_opcode_initiation_fp            1,2,1,1,4 # Opcode initiation intervals for single precision floating points <ADD,MAX,MUL,MAD,DIV>Default 1,1,1,1,5
-ptx_opcode_initiation_dp         8,16,8,8,130 # Opcode initiation intervals for double precision floating points <ADD,MAX,MUL,MAD,DIV>Default 8,8,8,8,130
DRAM Timing Options:
nbk                                    16 # number of banks
CCD                                     2 # column to column delay
RRD                                     6 # minimal delay between activation of rows in different banks
RCD                                    12 # row to column delay
RAS                                    28 # time needed to activate row
RP                                     12 # time needed to precharge (deactivate) row
RC                                     40 # row cycle time
CDLR                                    5 # switching from write to read (changes tWTR)
WR                                     12 # last data-in to row precharge
CL                                     12 # CAS latency
WL                                      4 # Write latency
nbkgrp                                  4 # number of bank groups
CCDL                                    3 # column to column delay between accesses to different bank groups
RTPL                                    2 # read to precharge delay between accesses to different bank groups
Total number of memory sub partition = 12
addr_dec_mask[CHIP]  = 0000000000000000 	high:64 low:0
addr_dec_mask[BK]    = 000000000000e100 	high:16 low:8
addr_dec_mask[ROW]   = 000000000fff0000 	high:28 low:16
addr_dec_mask[COL]   = 0000000000001eff 	high:13 low:0
addr_dec_mask[BURST] = 000000000000003f 	high:6 low:0
sub_partition_id_mask = 0000000000000100
GPGPU-Sim uArch: clock freqs: 700000000.000000:700000000.000000:700000000.000000:924000000.000000
GPGPU-Sim uArch: clock periods: 0.00000000142857142857:0.00000000142857142857:0.00000000142857142857:0.00000000108225108225
*** Initializing Memory Statistics ***
GPGPU-Sim uArch: interconnect node map (shaderID+MemID to icntID)
GPGPU-Sim uArch: Memory nodes ID start from index: 15
GPGPU-Sim uArch:    0   1   2   3   4
GPGPU-Sim uArch:    5   6   7   8   9
GPGPU-Sim uArch:   10  11  12  13  14
GPGPU-Sim uArch:   15  16  17  18  19
GPGPU-Sim uArch:   20  21  22  23  24
GPGPU-Sim uArch:   25  26
GPGPU-Sim uArch: interconnect node reverse map (icntID to shaderID+MemID)
GPGPU-Sim uArch: Memory nodes start from ID: 15
GPGPU-Sim uArch:    0   1   2   3   4
GPGPU-Sim uArch:    5   6   7   8   9
GPGPU-Sim uArch:   10  11  12  13  14
GPGPU-Sim uArch:   15  16  17  18  19
GPGPU-Sim uArch:   20  21  22  23  24
GPGPU-Sim uArch:   25  26
2a552cef618c3eed1202856b15bdbc61  /home/scratch/adwait/applications/benchmarks/CUDA/RAY/gpgpu_ptx_sim__RAY
GPGPU-Sim uArch: performance model initialization complete.
GPGPU-Sim PTX: __cudaRegisterFatBinary, fat_cubin_handle = 1, filename=rayTracing.cu
self exe links to: /home/scratch/adwait/applications/benchmarks/CUDA/RAY/gpgpu_ptx_sim__RAY
Running md5sum using "md5sum /home/scratch/adwait/applications/benchmarks/CUDA/RAY/gpgpu_ptx_sim__RAY "
Running cuobjdump using "$CUDA_INSTALL_PATH/bin/cuobjdump -ptx -elf -sass /home/scratch/adwait/applications/benchmarks/CUDA/RAY/gpgpu_ptx_sim__RAY > _cuobjdump_complete_output_NiVmkC"
Parsing file _cuobjdump_complete_output_NiVmkC
######### cuobjdump parser ########
## Adding new section ELF
Adding arch: sm_20
Adding identifier: rayTracing.cu
## Adding new section PTX
Adding ptx filename: _cuobjdump_1.ptx
Adding arch: sm_20
Adding identifier: rayTracing.cu
Done parsing!!!
GPGPU-Sim PTX: __cudaRegisterFunction _Z6renderPjP4Nodejjff : hostFun 0x0x40d033, fat_cubin_handle = 1
GPGPU-Sim PTX: allocating stack frame region for .param "__cudaretf__Zmi6float3S_" from 0x0 to 0xc
GPGPU-Sim PTX: allocating stack frame region for .param "__cudaparmf1__Zmi6float3S_" from 0xc to 0x18
GPGPU-Sim PTX: allocating stack frame region for .param "__cudaparmf2__Zmi6float3S_" from 0x18 to 0x24
GPGPU-Sim PTX: allocating stack frame region for .param "__cudaretf__Z9normalize6float3" from 0x0 to 0xc
GPGPU-Sim PTX: allocating stack frame region for .param "__cudaparmf1__Z9normalize6float3" from 0xc to 0x18
GPGPU-Sim PTX: allocating stack frame region for .param "__cudaretf__Z18intersectionSphere5Rayon6float3f" from 0x0 to 0x4
GPGPU-Sim PTX: allocating stack frame region for .param "__cudaparmf1__Z18intersectionSphere5Rayon6float3f" from 0x4 to 0x1c
GPGPU-Sim PTX: allocating stack frame region for .param "__cudaparmf2__Z18intersectionSphere5Rayon6float3f" from 0x1c to 0x28
GPGPU-Sim PTX: allocating stack frame region for .param "__cudaparmf3__Z18intersectionSphere5Rayon6float3f" from 0x28 to 0x2c
GPGPU-Sim PTX: allocating stack frame region for .param "__cudaretf__Z16intersectionPlan5Rayon6float3S0_" from 0x0 to 0x4
GPGPU-Sim PTX: allocating stack frame region for .param "__cudaparmf1__Z16intersectionPlan5Rayon6float3S0_" from 0x4 to 0x1c
GPGPU-Sim PTX: allocating stack frame region for .param "__cudaparmf2__Z16intersectionPlan5Rayon6float3S0_" from 0x1c to 0x28
GPGPU-Sim PTX: allocating stack frame region for .param "__cudaparmf3__Z16intersectionPlan5Rayon6float3S0_" from 0x28 to 0x34
GPGPU-Sim PTX: allocating stack frame region for .param "__cudaretf__Z10getNormale6float3S_" from 0x0 to 0xc
GPGPU-Sim PTX: allocating stack frame region for .param "__cudaparmf1__Z10getNormale6float3S_" from 0xc to 0x18
GPGPU-Sim PTX: allocating stack frame region for .param "__cudaparmf2__Z10getNormale6float3S_" from 0x18 to 0x24
GPGPU-Sim PTX: allocating stack frame region for .param "__cudaretf__Z11getNormaleP6float3" from 0x0 to 0xc
GPGPU-Sim PTX: allocating stack frame region for .param "__cudaparmf1__Z11getNormaleP6float3" from 0xc to 0x18
GPGPU-Sim PTX: allocating stack frame region for .param "__cudaretf__Z14rgbaFloatToInt6float4" from 0x0 to 0x4
GPGPU-Sim PTX: allocating stack frame region for .param "__cudaparmf1__Z14rgbaFloatToInt6float4" from 0x4 to 0x14
GPGPU-Sim PTX: allocating stack frame region for .param "__cudaretf__Z12notShadowRayP4Node6float3S1_f" from 0x0 to 0x4
GPGPU-Sim PTX: allocating stack frame region for .param "__cudaparmf1__Z12notShadowRayP4Node6float3S1_f" from 0x4 to 0xc
GPGPU-Sim PTX: allocating stack frame region for .param "__cudaparmf2__Z12notShadowRayP4Node6float3S1_f" from 0xc to 0x18
GPGPU-Sim PTX: allocating stack frame region for .param "__cudaparmf3__Z12notShadowRayP4Node6float3S1_f" from 0x18 to 0x24
GPGPU-Sim PTX: allocating stack frame region for .param "__cudaparmf4__Z12notShadowRayP4Node6float3S1_f" from 0x24 to 0x28
GPGPU-Sim PTX: allocating stack frame region for .param "__cudaretf__Z15float2int_pow20f" from 0x0 to 0x4
GPGPU-Sim PTX: allocating stack frame region for .param "__cudaparmf1__Z15float2int_pow20f" from 0x4 to 0x8
GPGPU-Sim PTX: allocating stack frame region for .param "__cudaretf__Z15float2int_pow50f" from 0x0 to 0x4
GPGPU-Sim PTX: allocating stack frame region for .param "__cudaparmf1__Z15float2int_pow50f" from 0x4 to 0x8
GPGPU-Sim PTX: allocating stack frame region for .param "__cudaparmf1__ZN4dim3C1Ejjj" from 0x0 to 0x8
GPGPU-Sim PTX: allocating stack frame region for .param "__cudaparmf2__ZN4dim3C1Ejjj" from 0x8 to 0xc
GPGPU-Sim PTX: allocating stack frame region for .param "__cudaparmf3__ZN4dim3C1Ejjj" from 0xc to 0x10
GPGPU-Sim PTX: allocating stack frame region for .param "__cudaparmf4__ZN4dim3C1Ejjj" from 0x10 to 0x14
GPGPU-Sim PTX: instruction assembly for function '_Zmi6float3S_'...   done.
GPGPU-Sim PTX: finding reconvergence points for '_Zmi6float3S_'...
GPGPU-Sim PTX: Finding dominators for '_Zmi6float3S_'...
GPGPU-Sim PTX: Finding immediate dominators for '_Zmi6float3S_'...
GPGPU-Sim PTX: Finding postdominators for '_Zmi6float3S_'...
GPGPU-Sim PTX: Finding immediate postdominators for '_Zmi6float3S_'...
GPGPU-Sim PTX: pre-decoding instructions for '_Zmi6float3S_'...
GPGPU-Sim PTX: reconvergence points for _Zmi6float3S_...
GPGPU-Sim PTX: ... end of reconvergence points for _Zmi6float3S_
GPGPU-Sim PTX: ... done pre-decoding instructions for '_Zmi6float3S_'.
GPGPU-Sim PTX: instruction assembly for function '_Z9normalize6float3'...   done.
GPGPU-Sim PTX: finding reconvergence points for '_Z9normalize6float3'...
GPGPU-Sim PTX: Finding dominators for '_Z9normalize6float3'...
GPGPU-Sim PTX: Finding immediate dominators for '_Z9normalize6float3'...
GPGPU-Sim PTX: Finding postdominators for '_Z9normalize6float3'...
GPGPU-Sim PTX: Finding immediate postdominators for '_Z9normalize6float3'...
GPGPU-Sim PTX: pre-decoding instructions for '_Z9normalize6float3'...
GPGPU-Sim PTX: reconvergence points for _Z9normalize6float3...
GPGPU-Sim PTX: ... end of reconvergence points for _Z9normalize6float3
GPGPU-Sim PTX: ... done pre-decoding instructions for '_Z9normalize6float3'.
GPGPU-Sim PTX: instruction assembly for function '_Z18intersectionSphere5Rayon6float3f'...   done.
GPGPU-Sim PTX: finding reconvergence points for '_Z18intersectionSphere5Rayon6float3f'...
GPGPU-Sim PTX: Finding dominators for '_Z18intersectionSphere5Rayon6float3f'...
GPGPU-Sim PTX: Finding immediate dominators for '_Z18intersectionSphere5Rayon6float3f'...
GPGPU-Sim PTX: Finding postdominators for '_Z18intersectionSphere5Rayon6float3f'...
GPGPU-Sim PTX: Finding immediate postdominators for '_Z18intersectionSphere5Rayon6float3f'...
GPGPU-Sim PTX: pre-decoding instructions for '_Z18intersectionSphere5Rayon6float3f'...
GPGPU-Sim PTX: reconvergence points for _Z18intersectionSphere5Rayon6float3f...
GPGPU-Sim PTX:  1 (potential) branch divergence @  PC=0x250 (_1.ptx:173) @%p2 bra $Lt_2_3074;
GPGPU-Sim PTX:    immediate post dominator      @  PC=0x2c0 (_1.ptx:193) mov.f32 %f39, %f32;
GPGPU-Sim PTX:  2 (potential) branch divergence @  PC=0x260 (_1.ptx:175) bra.uni $Lt_2_2818;
GPGPU-Sim PTX:    immediate post dominator      @  PC=0x2c0 (_1.ptx:193) mov.f32 %f39, %f32;
GPGPU-Sim PTX:  3 (potential) branch divergence @  PC=0x280 (_1.ptx:180) @!%p3 bra $Lt_2_3586;
GPGPU-Sim PTX:    immediate post dominator      @  PC=0x2c0 (_1.ptx:193) mov.f32 %f39, %f32;
GPGPU-Sim PTX:  4 (potential) branch divergence @  PC=0x290 (_1.ptx:182) bra.uni $Lt_2_3330;
GPGPU-Sim PTX:    immediate post dominator      @  PC=0x2c0 (_1.ptx:193) mov.f32 %f39, %f32;
GPGPU-Sim PTX: ... end of reconvergence points for _Z18intersectionSphere5Rayon6float3f
GPGPU-Sim PTX: ... done pre-decoding instructions for '_Z18intersectionSphere5Rayon6float3f'.
GPGPU-Sim PTX: instruction assembly for function '_Z16intersectionPlan5Rayon6float3S0_'...   done.
GPGPU-Sim PTX: finding reconvergence points for '_Z16intersectionPlan5Rayon6float3S0_'...
GPGPU-Sim PTX: Finding dominators for '_Z16intersectionPlan5Rayon6float3S0_'...
GPGPU-Sim PTX: Finding immediate dominators for '_Z16intersectionPlan5Rayon6float3S0_'...
GPGPU-Sim PTX: Finding postdominators for '_Z16intersectionPlan5Rayon6float3S0_'...
GPGPU-Sim PTX: Finding immediate postdominators for '_Z16intersectionPlan5Rayon6float3S0_'...
GPGPU-Sim PTX: pre-decoding instructions for '_Z16intersectionPlan5Rayon6float3S0_'...
GPGPU-Sim PTX: reconvergence points for _Z16intersectionPlan5Rayon6float3S0_...
GPGPU-Sim PTX:  1 (potential) branch divergence @  PC=0x320 (_1.ptx:214) @!%p1 bra $Lt_3_2050;
GPGPU-Sim PTX:    immediate post dominator      @  PC=0x368 (_1.ptx:227) mov.f32 %f14, %f9;
GPGPU-Sim PTX:  2 (potential) branch divergence @  PC=0x330 (_1.ptx:216) bra.uni $Lt_3_1794;
GPGPU-Sim PTX:    immediate post dominator      @  PC=0x368 (_1.ptx:227) mov.f32 %f14, %f9;
GPGPU-Sim PTX: ... end of reconvergence points for _Z16intersectionPlan5Rayon6float3S0_
GPGPU-Sim PTX: ... done pre-decoding instructions for '_Z16intersectionPlan5Rayon6float3S0_'.
GPGPU-Sim PTX: instruction assembly for function '_Z10getNormale6float3S_'...   done.
GPGPU-Sim PTX: finding reconvergence points for '_Z10getNormale6float3S_'...
GPGPU-Sim PTX: Finding dominators for '_Z10getNormale6float3S_'...
GPGPU-Sim PTX: Finding immediate dominators for '_Z10getNormale6float3S_'...
GPGPU-Sim PTX: Finding postdominators for '_Z10getNormale6float3S_'...
GPGPU-Sim PTX: Finding immediate postdominators for '_Z10getNormale6float3S_'...
GPGPU-Sim PTX: pre-decoding instructions for '_Z10getNormale6float3S_'...
GPGPU-Sim PTX: reconvergence points for _Z10getNormale6float3S_...
GPGPU-Sim PTX: ... end of reconvergence points for _Z10getNormale6float3S_
GPGPU-Sim PTX: ... done pre-decoding instructions for '_Z10getNormale6float3S_'.
GPGPU-Sim PTX: instruction assembly for function '_Z11getNormaleP6float3'...   done.
GPGPU-Sim PTX: finding reconvergence points for '_Z11getNormaleP6float3'...
GPGPU-Sim PTX: Finding dominators for '_Z11getNormaleP6float3'...
GPGPU-Sim PTX: Finding immediate dominators for '_Z11getNormaleP6float3'...
GPGPU-Sim PTX: Finding postdominators for '_Z11getNormaleP6float3'...
GPGPU-Sim PTX: Finding immediate postdominators for '_Z11getNormaleP6float3'...
GPGPU-Sim PTX: pre-decoding instructions for '_Z11getNormaleP6float3'...
GPGPU-Sim PTX: reconvergence points for _Z11getNormaleP6float3...
GPGPU-Sim PTX: ... end of reconvergence points for _Z11getNormaleP6float3
GPGPU-Sim PTX: ... done pre-decoding instructions for '_Z11getNormaleP6float3'.
GPGPU-Sim PTX: instruction assembly for function '_Z14rgbaFloatToInt6float4'...   done.
GPGPU-Sim PTX: finding reconvergence points for '_Z14rgbaFloatToInt6float4'...
GPGPU-Sim PTX: Finding dominators for '_Z14rgbaFloatToInt6float4'...
GPGPU-Sim PTX: Finding immediate dominators for '_Z14rgbaFloatToInt6float4'...
GPGPU-Sim PTX: Finding postdominators for '_Z14rgbaFloatToInt6float4'...
GPGPU-Sim PTX: Finding immediate postdominators for '_Z14rgbaFloatToInt6float4'...
GPGPU-Sim PTX: pre-decoding instructions for '_Z14rgbaFloatToInt6float4'...
GPGPU-Sim PTX: reconvergence points for _Z14rgbaFloatToInt6float4...
GPGPU-Sim PTX: ... end of reconvergence points for _Z14rgbaFloatToInt6float4
GPGPU-Sim PTX: ... done pre-decoding instructions for '_Z14rgbaFloatToInt6float4'.
GPGPU-Sim PTX: allocating global region for "cnode" from 0x100 to 0x1a0 (global memory space)
GPGPU-Sim PTX: instruction assembly for function '_Z12notShadowRayP4Node6float3S1_f'...   done.
GPGPU-Sim PTX: finding reconvergence points for '_Z12notShadowRayP4Node6float3S1_f'...
GPGPU-Sim PTX: Finding dominators for '_Z12notShadowRayP4Node6float3S1_f'...
GPGPU-Sim PTX: Finding immediate dominators for '_Z12notShadowRayP4Node6float3S1_f'...
GPGPU-Sim PTX: Finding postdominators for '_Z12notShadowRayP4Node6float3S1_f'...
GPGPU-Sim PTX: Finding immediate postdominators for '_Z12notShadowRayP4Node6float3S1_f'...
GPGPU-Sim PTX: pre-decoding instructions for '_Z12notShadowRayP4Node6float3S1_f'...
GPGPU-Sim PTX: reconvergence points for _Z12notShadowRayP4Node6float3S1_f...
GPGPU-Sim PTX:  1 (potential) branch divergence @  PC=0x638 (_1.ptx:364) @%p1 bra $Lt_7_8450;
GPGPU-Sim PTX:    immediate post dominator      @  PC=0x828 (_1.ptx:441) mov.f32 %f58, 0f00000000;    // 0
GPGPU-Sim PTX:  2 (potential) branch divergence @  PC=0x658 (_1.ptx:369) @!%p2 bra $Lt_7_8962;
GPGPU-Sim PTX:    immediate post dominator      @  PC=0x6b8 (_1.ptx:385) mov.f32 %f28, %f20;
GPGPU-Sim PTX:  3 (potential) branch divergence @  PC=0x668 (_1.ptx:371) bra.uni $Lt_7_8706;
GPGPU-Sim PTX:    immediate post dominator      @  PC=0x6b8 (_1.ptx:385) mov.f32 %f28, %f20;
GPGPU-Sim PTX:  4 (potential) branch divergence @  PC=0x6c0 (_1.ptx:386) bra.uni $Lt_7_8194;
GPGPU-Sim PTX:    immediate post dominator      @  PC=0x828 (_1.ptx:441) mov.f32 %f58, 0f00000000;    // 0
GPGPU-Sim PTX:  5 (potential) branch divergence @  PC=0x7b0 (_1.ptx:418) @%p5 bra $Lt_7_9474;
GPGPU-Sim PTX:    immediate post dominator      @  PC=0x820 (_1.ptx:438) mov.f32 %f28, %f51;
GPGPU-Sim PTX:  6 (potential) branch divergence @  PC=0x7c0 (_1.ptx:420) bra.uni $Lt_7_9730;
GPGPU-Sim PTX:    immediate post dominator      @  PC=0x820 (_1.ptx:438) mov.f32 %f28, %f51;
GPGPU-Sim PTX:  7 (potential) branch divergence @  PC=0x7e0 (_1.ptx:425) @!%p6 bra $Lt_7_9986;
GPGPU-Sim PTX:    immediate post dominator      @  PC=0x820 (_1.ptx:438) mov.f32 %f28, %f51;
GPGPU-Sim PTX:  8 (potential) branch divergence @  PC=0x7f0 (_1.ptx:427) bra.uni $Lt_7_9730;
GPGPU-Sim PTX:    immediate post dominator      @  PC=0x820 (_1.ptx:438) mov.f32 %f28, %f51;
GPGPU-Sim PTX:  9 (potential) branch divergence @  PC=0x838 (_1.ptx:443) @!%p7 bra $Lt_7_10242;
GPGPU-Sim PTX:    immediate post dominator      @  PC=0x8e8 (_1.ptx:468) add.s32 %r1, %r1, 1;
GPGPU-Sim PTX: 10 (potential) branch divergence @  PC=0x8d8 (_1.ptx:463) @!%p8 bra $Lt_7_10242;
GPGPU-Sim PTX:    immediate post dominator      @  PC=0x8e8 (_1.ptx:468) add.s32 %r1, %r1, 1;
GPGPU-Sim PTX: 11 (potential) branch divergence @  PC=0x908 (_1.ptx:472) @%p9 bra $Lt_7_10754;
GPGPU-Sim PTX:    immediate post dominator      @  PC=0x960 (_1.ptx:486) selp.s32 %r10, 1, 0, %p11;
GPGPU-Sim PTX: 12 (potential) branch divergence @  PC=0x930 (_1.ptx:477) @%p10 bra $L_7_7170;
GPGPU-Sim PTX:    immediate post dominator      @  PC=0x960 (_1.ptx:486) selp.s32 %r10, 1, 0, %p11;
GPGPU-Sim PTX: 13 (potential) branch divergence @  PC=0x938 (_1.ptx:478) bra.uni $L_7_7938;
GPGPU-Sim PTX:    immediate post dominator      @  PC=0x960 (_1.ptx:486) selp.s32 %r10, 1, 0, %p11;
GPGPU-Sim PTX: ... end of reconvergence points for _Z12notShadowRayP4Node6float3S1_f
GPGPU-Sim PTX: ... done pre-decoding instructions for '_Z12notShadowRayP4Node6float3S1_f'.
GPGPU-Sim PTX: instruction assembly for function '_Z15float2int_pow20f'...   done.
GPGPU-Sim PTX: finding reconvergence points for '_Z15float2int_pow20f'...
GPGPU-Sim PTX: Finding dominators for '_Z15float2int_pow20f'...
GPGPU-Sim PTX: Finding immediate dominators for '_Z15float2int_pow20f'...
GPGPU-Sim PTX: Finding postdominators for '_Z15float2int_pow20f'...
GPGPU-Sim PTX: Finding immediate postdominators for '_Z15float2int_pow20f'...
GPGPU-Sim PTX: pre-decoding instructions for '_Z15float2int_pow20f'...
GPGPU-Sim PTX: reconvergence points for _Z15float2int_pow20f...
GPGPU-Sim PTX: ... end of reconvergence points for _Z15float2int_pow20f
GPGPU-Sim PTX: ... done pre-decoding instructions for '_Z15float2int_pow20f'.
GPGPU-Sim PTX: instruction assembly for function '_Z15float2int_pow50f'...   done.
GPGPU-Sim PTX: finding reconvergence points for '_Z15float2int_pow50f'...
GPGPU-Sim PTX: Finding dominators for '_Z15float2int_pow50f'...
GPGPU-Sim PTX: Finding immediate dominators for '_Z15float2int_pow50f'...
GPGPU-Sim PTX: Finding postdominators for '_Z15float2int_pow50f'...
GPGPU-Sim PTX: Finding immediate postdominators for '_Z15float2int_pow50f'...
GPGPU-Sim PTX: pre-decoding instructions for '_Z15float2int_pow50f'...
GPGPU-Sim PTX: reconvergence points for _Z15float2int_pow50f...
GPGPU-Sim PTX: ... end of reconvergence points for _Z15float2int_pow50f
GPGPU-Sim PTX: ... done pre-decoding instructions for '_Z15float2int_pow50f'.
GPGPU-Sim PTX: allocating constant region for "MView" from 0x200 to 0x230 (global memory space) 1
GPGPU-Sim PTX: allocating stack frame region for .local "__cuda___cuda_local_var_36206_9_non_const_pile_32240" from 0x0 to 0x50
GPGPU-Sim PTX: instruction assembly for function '_Z6renderPjP4Nodejjff'...   done.
GPGPU-Sim PTX: finding reconvergence points for '_Z6renderPjP4Nodejjff'...
GPGPU-Sim PTX: Finding dominators for '_Z6renderPjP4Nodejjff'...
GPGPU-Sim PTX: Finding immediate dominators for '_Z6renderPjP4Nodejjff'...
GPGPU-Sim PTX: Finding postdominators for '_Z6renderPjP4Nodejjff'...
GPGPU-Sim PTX: Finding immediate postdominators for '_Z6renderPjP4Nodejjff'...
GPGPU-Sim PTX: pre-decoding instructions for '_Z6renderPjP4Nodejjff'...
GPGPU-Sim PTX: reconvergence points for _Z6renderPjP4Nodejjff...
GPGPU-Sim PTX:  1 (potential) branch divergence @  PC=0xdb0 (_1.ptx:663) @%p1 bra $Lt_10_44034;
GPGPU-Sim PTX:    immediate post dominator      @  PC=0x2370 (_1.ptx:1495) exit;
GPGPU-Sim PTX:  2 (potential) branch divergence @  PC=0x1028 (_1.ptx:751) @%p2 bra $Lt_10_45570;
GPGPU-Sim PTX:    immediate post dominator      @  PC=0x11b8 (_1.ptx:815) mov.f32 %f108, 0f00000000;   // 0
GPGPU-Sim PTX:  3 (potential) branch divergence @  PC=0x1048 (_1.ptx:756) @!%p3 bra $Lt_10_46082;
GPGPU-Sim PTX:    immediate post dominator      @  PC=0x1090 (_1.ptx:769) mov.f32 %f87, %f82;
GPGPU-Sim PTX:  4 (potential) branch divergence @  PC=0x1058 (_1.ptx:758) bra.uni $Lt_10_45826;
GPGPU-Sim PTX:    immediate post dominator      @  PC=0x1090 (_1.ptx:769) mov.f32 %f87, %f82;
GPGPU-Sim PTX:  5 (potential) branch divergence @  PC=0x1098 (_1.ptx:770) bra.uni $Lt_10_45314;
GPGPU-Sim PTX:    immediate post dominator      @  PC=0x11b8 (_1.ptx:815) mov.f32 %f108, 0f00000000;   // 0
GPGPU-Sim PTX:  6 (potential) branch divergence @  PC=0x1140 (_1.ptx:793) @%p6 bra $Lt_10_46594;
GPGPU-Sim PTX:    immediate post dominator      @  PC=0x11b0 (_1.ptx:813) mov.f32 %f87, %f101;
GPGPU-Sim PTX:  7 (potential) branch divergence @  PC=0x1150 (_1.ptx:795) bra.uni $Lt_10_46850;
GPGPU-Sim PTX:    immediate post dominator      @  PC=0x11b0 (_1.ptx:813) mov.f32 %f87, %f101;
GPGPU-Sim PTX:  8 (potential) branch divergence @  PC=0x1170 (_1.ptx:800) @!%p7 bra $Lt_10_47106;
GPGPU-Sim PTX:    immediate post dominator      @  PC=0x11b0 (_1.ptx:813) mov.f32 %f87, %f101;
GPGPU-Sim PTX:  9 (potential) branch divergence @  PC=0x1180 (_1.ptx:802) bra.uni $Lt_10_46850;
GPGPU-Sim PTX:    immediate post dominator      @  PC=0x11b0 (_1.ptx:813) mov.f32 %f87, %f101;
GPGPU-Sim PTX: 10 (potential) branch divergence @  PC=0x11f8 (_1.ptx:823) @%p8 bra $Lt_10_47362;
GPGPU-Sim PTX:    immediate post dominator      @  PC=0x1210 (_1.ptx:829) add.s32 %r25, %r25, 1;
GPGPU-Sim PTX: 11 (potential) branch divergence @  PC=0x1230 (_1.ptx:833) @%p9 bra $Lt_10_45058;
GPGPU-Sim PTX:    immediate post dominator      @  PC=0x1238 (_1.ptx:834) mov.f32 %f109, 0f00000000;   // 0
GPGPU-Sim PTX: 12 (potential) branch divergence @  PC=0x1280 (_1.ptx:843) @%p10 bra $Lt_10_48130;
GPGPU-Sim PTX:    immediate post dominator      @  PC=0x2140 (_1.ptx:1416) add.s32 %r23, %r23, 1;
GPGPU-Sim PTX: 13 (potential) branch divergence @  PC=0x1330 (_1.ptx:868) @%p11 bra $Lt_10_48898;
GPGPU-Sim PTX:    immediate post dominator      @  PC=0x13b8 (_1.ptx:888) sub.f32 %f136, %f21, %f119;
GPGPU-Sim PTX: 14 (potential) branch divergence @  PC=0x1350 (_1.ptx:873) bra.uni $Lt_10_48642;
GPGPU-Sim PTX:    immediate post dominator      @  PC=0x13b8 (_1.ptx:888) sub.f32 %f136, %f21, %f119;
GPGPU-Sim PTX: 15 (potential) branch divergence @  PC=0x1430 (_1.ptx:903) @!%p12 bra $Lt_10_49410;
GPGPU-Sim PTX:    immediate post dominator      @  PC=0x1470 (_1.ptx:915) mov.f32 %f153, 0f3d4ccccd;   // 0.05
GPGPU-Sim PTX: 16 (potential) branch divergence @  PC=0x1450 (_1.ptx:908) bra.uni $Lt_10_49154;
GPGPU-Sim PTX:    immediate post dominator      @  PC=0x1470 (_1.ptx:915) mov.f32 %f153, 0f3d4ccccd;   // 0.05
GPGPU-Sim PTX: 17 (potential) branch divergence @  PC=0x1578 (_1.ptx:949) @!%p13 bra $Lt_10_58114;
GPGPU-Sim PTX:    immediate post dominator      @  PC=0x2080 (_1.ptx:1388) add.f32 %f399, %f126, %f126;
GPGPU-Sim PTX: 18 (potential) branch divergence @  PC=0x15c0 (_1.ptx:961) @%p14 bra $Lt_10_49922;
GPGPU-Sim PTX:    immediate post dominator      @  PC=0x17b0 (_1.ptx:1039) mov.f32 %f221, 0f00000000;   // 0
GPGPU-Sim PTX: 19 (potential) branch divergence @  PC=0x15e0 (_1.ptx:966) @!%p15 bra $Lt_10_50434;
GPGPU-Sim PTX:    immediate post dominator      @  PC=0x1638 (_1.ptx:982) mov.f32 %f190, %f183;
GPGPU-Sim PTX: 20 (potential) branch divergence @  PC=0x15f0 (_1.ptx:968) bra.uni $Lt_10_50178;
GPGPU-Sim PTX:    immediate post dominator      @  PC=0x1638 (_1.ptx:982) mov.f32 %f190, %f183;
GPGPU-Sim PTX: 21 (potential) branch divergence @  PC=0x1640 (_1.ptx:983) bra.uni $Lt_10_49666;
GPGPU-Sim PTX:    immediate post dominator      @  PC=0x17b0 (_1.ptx:1039) mov.f32 %f221, 0f00000000;   // 0
GPGPU-Sim PTX: 22 (potential) branch divergence @  PC=0x1738 (_1.ptx:1016) @%p18 bra $Lt_10_50946;
GPGPU-Sim PTX:    immediate post dominator      @  PC=0x17a8 (_1.ptx:1036) mov.f32 %f190, %f214;
GPGPU-Sim PTX: 23 (potential) branch divergence @  PC=0x1748 (_1.ptx:1018) bra.uni $Lt_10_51202;
GPGPU-Sim PTX:    immediate post dominator      @  PC=0x17a8 (_1.ptx:1036) mov.f32 %f190, %f214;
GPGPU-Sim PTX: 24 (potential) branch divergence @  PC=0x1768 (_1.ptx:1023) @!%p19 bra $Lt_10_51458;
GPGPU-Sim PTX:    immediate post dominator      @  PC=0x17a8 (_1.ptx:1036) mov.f32 %f190, %f214;
GPGPU-Sim PTX: 25 (potential) branch divergence @  PC=0x1778 (_1.ptx:1025) bra.uni $Lt_10_51202;
GPGPU-Sim PTX:    immediate post dominator      @  PC=0x17a8 (_1.ptx:1036) mov.f32 %f190, %f214;
GPGPU-Sim PTX: 26 (potential) branch divergence @  PC=0x17c0 (_1.ptx:1041) @!%p20 bra $Lt_10_58370;
GPGPU-Sim PTX:    immediate post dominator      @  PC=0x1828 (_1.ptx:1057) add.s32 %r50, %r50, 1;
GPGPU-Sim PTX: 27 (potential) branch divergence @  PC=0x1818 (_1.ptx:1052) @!%p21 bra $Lt_10_58370;
GPGPU-Sim PTX:    immediate post dominator      @  PC=0x1828 (_1.ptx:1057) add.s32 %r50, %r50, 1;
GPGPU-Sim PTX: 28 (potential) branch divergence @  PC=0x1848 (_1.ptx:1061) @%p22 bra $Lt_10_58882;
GPGPU-Sim PTX:    immediate post dominator      @  PC=0x1880 (_1.ptx:1071) @!%p23 bra $Lt_10_58114;
GPGPU-Sim PTX: 29 (potential) branch divergence @  PC=0x1860 (_1.ptx:1064) @%p23 bra $L_10_42498;
GPGPU-Sim PTX:    immediate post dominator      @  PC=0x1880 (_1.ptx:1071) @!%p23 bra $Lt_10_58114;
GPGPU-Sim PTX: 30 (potential) branch divergence @  PC=0x1868 (_1.ptx:1065) bra.uni $L_10_43266;
GPGPU-Sim PTX:    immediate post dominator      @  PC=0x1880 (_1.ptx:1071) @!%p23 bra $Lt_10_58114;
GPGPU-Sim PTX: 31 (potential) branch divergence @  PC=0x1880 (_1.ptx:1071) @!%p23 bra $Lt_10_58114;
GPGPU-Sim PTX:    immediate post dominator      @  PC=0x2080 (_1.ptx:1388) add.f32 %f399, %f126, %f126;
GPGPU-Sim PTX: 32 (potential) branch divergence @  PC=0x19c8 (_1.ptx:1115) @!%p24 bra $Lt_10_51714;
GPGPU-Sim PTX:    immediate post dominator      @  PC=0x2040 (_1.ptx:1375) mov.f32 %f394, 0f3f4ccccd;   // 0.8
GPGPU-Sim PTX: 33 (potential) branch divergence @  PC=0x19d8 (_1.ptx:1118) bra.uni $LDWendi___isnanf_192_1;
GPGPU-Sim PTX:    immediate post dominator      @  PC=0x2040 (_1.ptx:1375) mov.f32 %f394, 0f3f4ccccd;   // 0.8
GPGPU-Sim PTX: 34 (potential) branch divergence @  PC=0x19f8 (_1.ptx:1124) @!%p25 bra $Lt_10_7682;
GPGPU-Sim PTX:    immediate post dominator      @  PC=0x2040 (_1.ptx:1375) mov.f32 %f394, 0f3f4ccccd;   // 0.8
GPGPU-Sim PTX: 35 (potential) branch divergence @  PC=0x1a00 (_1.ptx:1125) bra.uni $Lt_10_7938;
GPGPU-Sim PTX:    immediate post dominator      @  PC=0x1a20 (_1.ptx:1133) mov.f32 %f272, 0f7f800000;   // ((1.0F)/(0.0F))
GPGPU-Sim PTX: 36 (potential) branch divergence @  PC=0x1a18 (_1.ptx:1130) bra.uni $LDWendi___isnanf_192_1;
GPGPU-Sim PTX:    immediate post dominator      @  PC=0x2040 (_1.ptx:1375) mov.f32 %f394, 0f3f4ccccd;   // 0.8
GPGPU-Sim PTX: 37 (potential) branch divergence @  PC=0x1a30 (_1.ptx:1135) @!%p26 bra $Lt_10_52226;
GPGPU-Sim PTX:    immediate post dominator      @  PC=0x2040 (_1.ptx:1375) mov.f32 %f394, 0f3f4ccccd;   // 0.8
GPGPU-Sim PTX: 38 (potential) branch divergence @  PC=0x1a40 (_1.ptx:1138) bra.uni $LDWendi___isnanf_192_1;
GPGPU-Sim PTX:    immediate post dominator      @  PC=0x2040 (_1.ptx:1375) mov.f32 %f394, 0f3f4ccccd;   // 0.8
GPGPU-Sim PTX: 39 (potential) branch divergence @  PC=0x1a58 (_1.ptx:1142) @!%p27 bra $Lt_10_52738;
GPGPU-Sim PTX:    immediate post dominator      @  PC=0x2040 (_1.ptx:1375) mov.f32 %f394, 0f3f4ccccd;   // 0.8
GPGPU-Sim PTX: 40 (potential) branch divergence @  PC=0x1ab8 (_1.ptx:1155) bra.uni $LDWendi___isnanf_192_1;
GPGPU-Sim PTX:    immediate post dominator      @  PC=0x2040 (_1.ptx:1375) mov.f32 %f394, 0f3f4ccccd;   // 0.8
GPGPU-Sim PTX: 41 (potential) branch divergence @  PC=0x1ad0 (_1.ptx:1159) @!%p29 bra $Lt_10_53250;
GPGPU-Sim PTX:    immediate post dominator      @  PC=0x2040 (_1.ptx:1375) mov.f32 %f394, 0f3f4ccccd;   // 0.8
GPGPU-Sim PTX: 42 (potential) branch divergence @  PC=0x1b20 (_1.ptx:1170) @!%p30 bra $Lt_10_53762;
GPGPU-Sim PTX:    immediate post dominator      @  PC=0x1b40 (_1.ptx:1177) mov.f32 %f268, %f284;
GPGPU-Sim PTX: 43 (potential) branch divergence @  PC=0x1b48 (_1.ptx:1178) bra.uni $LDWendi___isnanf_192_1;
GPGPU-Sim PTX:    immediate post dominator      @  PC=0x2040 (_1.ptx:1375) mov.f32 %f394, 0f3f4ccccd;   // 0.8
GPGPU-Sim PTX: 44 (potential) branch divergence @  PC=0x1b60 (_1.ptx:1183) @!%p31 bra $Lt_10_59394;
GPGPU-Sim PTX:    immediate post dominator      @  PC=0x2040 (_1.ptx:1375) mov.f32 %f394, 0f3f4ccccd;   // 0.8
GPGPU-Sim PTX: 45 (potential) branch divergence @  PC=0x1b88 (_1.ptx:1188) @!%p32 bra $Lt_10_59394;
GPGPU-Sim PTX:    immediate post dominator      @  PC=0x2040 (_1.ptx:1375) mov.f32 %f394, 0f3f4ccccd;   // 0.8
GPGPU-Sim PTX: 46 (potential) branch divergence @  PC=0x1ba0 (_1.ptx:1192) bra.uni $LDWendi___isnanf_192_1;
GPGPU-Sim PTX:    immediate post dominator      @  PC=0x2040 (_1.ptx:1375) mov.f32 %f394, 0f3f4ccccd;   // 0.8
GPGPU-Sim PTX: 47 (potential) branch divergence @  PC=0x1bd8 (_1.ptx:1202) @%p33 bra $Lt_10_54530;
GPGPU-Sim PTX:    immediate post dominator      @  PC=0x1c20 (_1.ptx:1216) sub.s32 %r64, %r64, 127;
GPGPU-Sim PTX: 48 (potential) branch divergence @  PC=0x1c10 (_1.ptx:1211) bra.uni $Lt_10_54274;
GPGPU-Sim PTX:    immediate post dominator      @  PC=0x1c20 (_1.ptx:1216) sub.s32 %r64, %r64, 127;
GPGPU-Sim PTX: 49 (potential) branch divergence @  PC=0x1c58 (_1.ptx:1224) @!%p34 bra $Lt_10_54786;
GPGPU-Sim PTX:    immediate post dominator      @  PC=0x1c78 (_1.ptx:1232) mov.f32 %f302, 0fbf800000;   // -1
GPGPU-Sim PTX: 50 (potential) branch divergence @  PC=0x1eb0 (_1.ptx:1312) @%p35 bra $Lt_10_55298;
GPGPU-Sim PTX:    immediate post dominator      @  PC=0x1ed8 (_1.ptx:1321) mov.f32 %f367, %f365;
GPGPU-Sim PTX: 51 (potential) branch divergence @  PC=0x1f98 (_1.ptx:1346) @!%p38 bra $Lt_10_55810;
GPGPU-Sim PTX:    immediate post dominator      @  PC=0x1fa8 (_1.ptx:1351) mov.f32 %f284, %f386;
GPGPU-Sim PTX: 52 (potential) branch divergence @  PC=0x2018 (_1.ptx:1365) @%p39 bra $Lt_10_56322;
GPGPU-Sim PTX:    immediate post dominator      @  PC=0x2038 (_1.ptx:1372) mov.f32 %f268, %f284;
GPGPU-Sim PTX: 53 (potential) branch divergence @  PC=0x2158 (_1.ptx:1419) @%p40 bra $L_10_42242;
GPGPU-Sim PTX:    immediate post dominator      @  PC=0x2170 (_1.ptx:1424) sub.s32 %r86, %r24, 1;
GPGPU-Sim PTX: 54 (potential) branch divergence @  PC=0x2168 (_1.ptx:1421) @%p41 bra $L_10_41474;
GPGPU-Sim PTX:    immediate post dominator      @  PC=0x2170 (_1.ptx:1424) sub.s32 %r86, %r24, 1;
GPGPU-Sim PTX: 55 (potential) branch divergence @  PC=0x2190 (_1.ptx:1428) @%p42 bra $Lt_10_56834;
GPGPU-Sim PTX:    immediate post dominator      @  PC=0x2288 (_1.ptx:1464) ld.global.u32 %r92, [%rd4+0];
GPGPU-Sim PTX: 56 (potential) branch divergence @  PC=0x2280 (_1.ptx:1461) @%p43 bra $Lt_10_57346;
GPGPU-Sim PTX:    immediate post dominator      @  PC=0x2288 (_1.ptx:1464) ld.global.u32 %r92, [%rd4+0];
GPGPU-Sim PTX: ... end of reconvergence points for _Z6renderPjP4Nodejjff
GPGPU-Sim PTX: ... done pre-decoding instructions for '_Z6renderPjP4Nodejjff'.
GPGPU-Sim PTX: instruction assembly for function '_ZN4dim3C1Ejjj'...   done.
GPGPU-Sim PTX: finding reconvergence points for '_ZN4dim3C1Ejjj'...
GPGPU-Sim PTX: Finding dominators for '_ZN4dim3C1Ejjj'...
GPGPU-Sim PTX: Finding immediate dominators for '_ZN4dim3C1Ejjj'...
GPGPU-Sim PTX: Finding postdominators for '_ZN4dim3C1Ejjj'...
GPGPU-Sim PTX: Finding immediate postdominators for '_ZN4dim3C1Ejjj'...
GPGPU-Sim PTX: pre-decoding instructions for '_ZN4dim3C1Ejjj'...
GPGPU-Sim PTX: reconvergence points for _ZN4dim3C1Ejjj...
GPGPU-Sim PTX: ... end of reconvergence points for _ZN4dim3C1Ejjj
GPGPU-Sim PTX: ... done pre-decoding instructions for '_ZN4dim3C1Ejjj'.
GPGPU-Sim PTX: finished parsing EMBEDDED .ptx file _1.ptx
Adding _cuobjdump_1.ptx with cubin handle 1
GPGPU-Sim PTX: extracting embedded .ptx to temporary file "_ptx_3QrVep"
Running: cat _ptx_3QrVep | sed 's/.version 1.5/.version 1.4/' | sed 's/, texmode_independent//' | sed 's/\(\.extern \.const\[1\] .b8 \w\+\)\[\]/\1\[1\]/' | sed 's/const\[.\]/const\[0\]/g' > _ptx2_zsQQ9b
GPGPU-Sim PTX: generating ptxinfo using "$CUDA_INSTALL_PATH/bin/ptxas --gpu-name=sm_20 -v _ptx2_zsQQ9b --output-file  /dev/null 2> _ptx_3QrVepinfo"
GPGPU-Sim PTX: Kernel '_Z6renderPjP4Nodejjff' : regs=45, lmem=4, smem=0, cmem=180
GPGPU-Sim PTX: removing ptxinfo using "rm -f _ptx_3QrVep _ptx2_zsQQ9b _ptx_3QrVepinfo"
GPGPU-Sim PTX: loading globals with explicit initializers... 
GPGPU-Sim PTX: finished loading globals (0 bytes total).
GPGPU-Sim PTX: loading constants with explicit initializers...  done.
GPGPU-Sim PTX: __cudaRegisterVar: hostVar = 0x632880; deviceAddress = MView; deviceName = MView
GPGPU-Sim PTX: __cudaRegisterVar: Registering const memory space of 48 bytes
GPGPU-Sim PTX registering constant MView (48 bytes) to name mapping
GPGPU-Sim PTX: __cudaRegisterVar: hostVar = 0x6328c0; deviceAddress = cnode; deviceName = cnode
GPGPU-Sim PTX: __cudaRegisterVar: Registering const memory space of 160 bytes
GPGPU-Sim PTX registering constant cnode (160 bytes) to name mapping
GPGPU-Sim PTX: cudaMemcpyToSymbol: symbol = 0x6328c0
GPGPU-Sim PTX: starting gpgpu_ptx_sim_memcpy_symbol with hostVar 0x0x6328c0
GPGPU-Sim PTX: gpgpu_ptx_sim_memcpy_symbol: Found PTX symbol w/ hostVar=0x6328c0
GPGPU-Sim PTX: gpgpu_ptx_sim_memcpy_symbol: copying const memory 160 bytes  to  symbol cnode+0 @0x100 ...
GPGPU-Sim PTX: cudaMemcpyToSymbol: symbol = 0x632880
GPGPU-Sim PTX: starting gpgpu_ptx_sim_memcpy_symbol with hostVar 0x0x632880
GPGPU-Sim PTX: gpgpu_ptx_sim_memcpy_symbol: Found PTX symbol w/ hostVar=0x632880
GPGPU-Sim PTX: gpgpu_ptx_sim_memcpy_symbol: copying const memory 48 bytes  to  symbol MView+0 @0x200 ...

GPGPU-Sim PTX: cudaLaunch for 0x0x40d033 (mode=performance simulation) on stream 0
GPGPU-Sim PTX: pushing kernel '_Z6renderPjP4Nodejjff' to stream 0, gridDim= (16,32,1) blockDim = (16,8,1) 
kernel '_Z6renderPjP4Nodejjff' transfer to GPU hardware scheduler
GPGPU-Sim uArch: Shader 1 bind to kernel 1 '_Z6renderPjP4Nodejjff'
GPGPU-Sim uArch: CTA/core = 5, limited by: regs
GPGPU-Sim uArch: core:  1, cta: 0 initialized @(1,0)
GPGPU-Sim uArch: Shader 2 bind to kernel 1 '_Z6renderPjP4Nodejjff'
GPGPU-Sim uArch: core:  2, cta: 0 initialized @(1,0)
GPGPU-Sim uArch: Shader 3 bind to kernel 1 '_Z6renderPjP4Nodejjff'
GPGPU-Sim uArch: core:  3, cta: 0 initialized @(1,0)
GPGPU-Sim uArch: Shader 4 bind to kernel 1 '_Z6renderPjP4Nodejjff'
GPGPU-Sim uArch: core:  4, cta: 0 initialized @(1,0)
GPGPU-Sim uArch: Shader 5 bind to kernel 1 '_Z6renderPjP4Nodejjff'
GPGPU-Sim uArch: core:  5, cta: 0 initialized @(1,0)
GPGPU-Sim uArch: Shader 6 bind to kernel 1 '_Z6renderPjP4Nodejjff'
GPGPU-Sim uArch: core:  6, cta: 0 initialized @(1,0)
GPGPU-Sim uArch: Shader 7 bind to kernel 1 '_Z6renderPjP4Nodejjff'
GPGPU-Sim uArch: core:  7, cta: 0 initialized @(1,0)
GPGPU-Sim uArch: Shader 8 bind to kernel 1 '_Z6renderPjP4Nodejjff'
GPGPU-Sim uArch: core:  8, cta: 0 initialized @(1,0)
GPGPU-Sim uArch: Shader 9 bind to kernel 1 '_Z6renderPjP4Nodejjff'
GPGPU-Sim uArch: core:  9, cta: 0 initialized @(1,0)
GPGPU-Sim uArch: Shader 10 bind to kernel 1 '_Z6renderPjP4Nodejjff'
GPGPU-Sim uArch: core: 10, cta: 0 initialized @(1,0)
GPGPU-Sim uArch: Shader 11 bind to kernel 1 '_Z6renderPjP4Nodejjff'
GPGPU-Sim uArch: core: 11, cta: 0 initialized @(1,0)
GPGPU-Sim uArch: Shader 12 bind to kernel 1 '_Z6renderPjP4Nodejjff'
GPGPU-Sim uArch: core: 12, cta: 0 initialized @(1,0)
GPGPU-Sim uArch: Shader 13 bind to kernel 1 '_Z6renderPjP4Nodejjff'
GPGPU-Sim uArch: core: 13, cta: 0 initialized @(1,0)
GPGPU-Sim uArch: Shader 14 bind to kernel 1 '_Z6renderPjP4Nodejjff'
GPGPU-Sim uArch: core: 14, cta: 0 initialized @(1,0)
GPGPU-Sim uArch: Shader 0 bind to kernel 1 '_Z6renderPjP4Nodejjff'
GPGPU-Sim uArch: core:  0, cta: 0 initialized @(1,0)
GPGPU-Sim uArch: core:  1, cta: 1 initialized @(2,0)
GPGPU-Sim uArch: core:  2, cta: 1 initialized @(2,0)
GPGPU-Sim uArch: core:  3, cta: 1 initialized @(2,0)
GPGPU-Sim uArch: core:  4, cta: 1 initialized @(2,0)
GPGPU-Sim uArch: core:  5, cta: 1 initialized @(2,0)
GPGPU-Sim uArch: core:  6, cta: 1 initialized @(2,0)
GPGPU-Sim uArch: core:  7, cta: 1 initialized @(2,0)
GPGPU-Sim uArch: core:  8, cta: 1 initialized @(2,0)
GPGPU-Sim uArch: core:  9, cta: 1 initialized @(2,0)
GPGPU-Sim uArch: core: 10, cta: 1 initialized @(2,0)
GPGPU-Sim uArch: core: 11, cta: 1 initialized @(2,0)
GPGPU-Sim uArch: core: 12, cta: 1 initialized @(2,0)
GPGPU-Sim uArch: core: 13, cta: 1 initialized @(2,0)
GPGPU-Sim uArch: core: 14, cta: 1 initialized @(2,0)
GPGPU-Sim uArch: core:  0, cta: 1 initialized @(2,0)
GPGPU-Sim uArch: core:  1, cta: 2 initialized @(3,0)
GPGPU-Sim uArch: core:  2, cta: 2 initialized @(3,0)
GPGPU-Sim uArch: core:  3, cta: 2 initialized @(3,0)
GPGPU-Sim uArch: core:  4, cta: 2 initialized @(3,0)
GPGPU-Sim uArch: core:  5, cta: 2 initialized @(3,0)
GPGPU-Sim uArch: core:  6, cta: 2 initialized @(3,0)
GPGPU-Sim uArch: core:  7, cta: 2 initialized @(3,0)
GPGPU-Sim uArch: core:  8, cta: 2 initialized @(3,0)
GPGPU-Sim uArch: core:  9, cta: 2 initialized @(3,0)
GPGPU-Sim uArch: core: 10, cta: 2 initialized @(3,0)
GPGPU-Sim uArch: core: 11, cta: 2 initialized @(3,0)
GPGPU-Sim uArch: core: 12, cta: 2 initialized @(3,0)
GPGPU-Sim uArch: core: 13, cta: 2 initialized @(3,0)
GPGPU-Sim uArch: core: 14, cta: 2 initialized @(3,0)
GPGPU-Sim uArch: core:  0, cta: 2 initialized @(3,0)
GPGPU-Sim uArch: core:  1, cta: 3 initialized @(4,0)
GPGPU-Sim uArch: core:  2, cta: 3 initialized @(4,0)
GPGPU-Sim uArch: core:  3, cta: 3 initialized @(4,0)
GPGPU-Sim uArch: core:  4, cta: 3 initialized @(4,0)
GPGPU-Sim uArch: core:  5, cta: 3 initialized @(4,0)
GPGPU-Sim uArch: core:  6, cta: 3 initialized @(4,0)
GPGPU-Sim uArch: core:  7, cta: 3 initialized @(4,0)
GPGPU-Sim uArch: core:  8, cta: 3 initialized @(4,0)
GPGPU-Sim uArch: core:  9, cta: 3 initialized @(4,0)
GPGPU-Sim uArch: core: 10, cta: 3 initialized @(4,0)
GPGPU-Sim uArch: core: 11, cta: 3 initialized @(4,0)
GPGPU-Sim uArch: core: 12, cta: 3 initialized @(4,0)
GPGPU-Sim uArch: core: 13, cta: 3 initialized @(4,0)
GPGPU-Sim uArch: core: 14, cta: 3 initialized @(4,0)
GPGPU-Sim uArch: core:  0, cta: 3 initialized @(4,0)
GPGPU-Sim uArch: core:  1, cta: 4 initialized @(5,0)
GPGPU-Sim uArch: core:  2, cta: 4 initialized @(5,0)
GPGPU-Sim uArch: core:  3, cta: 4 initialized @(5,0)
GPGPU-Sim uArch: core:  4, cta: 4 initialized @(5,0)
GPGPU-Sim uArch: core:  5, cta: 4 initialized @(5,0)
GPGPU-Sim uArch: core:  6, cta: 4 initialized @(5,0)
GPGPU-Sim uArch: core:  7, cta: 4 initialized @(5,0)
GPGPU-Sim uArch: core:  8, cta: 4 initialized @(5,0)
GPGPU-Sim uArch: core:  9, cta: 4 initialized @(5,0)
GPGPU-Sim uArch: core: 10, cta: 4 initialized @(5,0)
GPGPU-Sim uArch: core: 11, cta: 4 initialized @(5,0)
GPGPU-Sim uArch: core: 12, cta: 4 initialized @(5,0)
GPGPU-Sim uArch: core: 13, cta: 4 initialized @(5,0)
GPGPU-Sim uArch: core: 14, cta: 4 initialized @(5,0)
GPGPU-Sim uArch: core:  0, cta: 4 initialized @(5,0)
GPGPU-Sim uArch: cycles simulated: 500  inst.: 36032 (ipc=72.1) sim_rate=36032 (inst/sec) elapsed = 0:0:00:01 / Tue Apr 16 16:56:31 2019
GPGPU-Sim PTX: 100000 instructions simulated : ctaid=(7,0,0) tid=(15,1,0)
GPGPU-Sim uArch: cycles simulated: 2500  inst.: 110240 (ipc=44.1) sim_rate=55120 (inst/sec) elapsed = 0:0:00:02 / Tue Apr 16 16:56:32 2019
GPGPU-Sim PTX: 200000 instructions simulated : ctaid=(7,3,0) tid=(15,5,0)
GPGPU-Sim uArch: cycles simulated: 4500  inst.: 264160 (ipc=58.7) sim_rate=88053 (inst/sec) elapsed = 0:0:00:03 / Tue Apr 16 16:56:33 2019
GPGPU-Sim PTX: 300000 instructions simulated : ctaid=(2,0,0) tid=(15,1,0)
GPGPU-Sim PTX: 400000 instructions simulated : ctaid=(4,0,0) tid=(15,7,0)
GPGPU-Sim uArch: cycles simulated: 6000  inst.: 486400 (ipc=81.1) sim_rate=121600 (inst/sec) elapsed = 0:0:00:04 / Tue Apr 16 16:56:34 2019
GPGPU-Sim PTX: 500000 instructions simulated : ctaid=(14,1,0) tid=(15,5,0)
GPGPU-Sim PTX: 600000 instructions simulated : ctaid=(14,3,0) tid=(15,5,0)
GPGPU-Sim PTX: 700000 instructions simulated : ctaid=(7,4,0) tid=(15,1,0)
GPGPU-Sim uArch: cycles simulated: 7000  inst.: 732160 (ipc=104.6) sim_rate=146432 (inst/sec) elapsed = 0:0:00:05 / Tue Apr 16 16:56:35 2019
GPGPU-Sim PTX: 800000 instructions simulated : ctaid=(1,0,0) tid=(15,7,0)
GPGPU-Sim PTX: 900000 instructions simulated : ctaid=(5,1,0) tid=(15,3,0)
GPGPU-Sim PTX: 1000000 instructions simulated : ctaid=(4,2,0) tid=(15,7,0)
GPGPU-Sim PTX: 1100000 instructions simulated : ctaid=(13,2,0) tid=(15,7,0)
GPGPU-Sim uArch: cycles simulated: 8500  inst.: 1091968 (ipc=128.5) sim_rate=181994 (inst/sec) elapsed = 0:0:00:06 / Tue Apr 16 16:56:36 2019
GPGPU-Sim PTX: 1200000 instructions simulated : ctaid=(4,2,0) tid=(15,5,0)
GPGPU-Sim PTX: 1300000 instructions simulated : ctaid=(14,3,0) tid=(15,3,0)
GPGPU-Sim PTX: 1400000 instructions simulated : ctaid=(6,0,0) tid=(15,7,0)
GPGPU-Sim PTX: 1500000 instructions simulated : ctaid=(7,3,0) tid=(15,1,0)
GPGPU-Sim uArch: cycles simulated: 9500  inst.: 1536896 (ipc=161.8) sim_rate=219556 (inst/sec) elapsed = 0:0:00:07 / Tue Apr 16 16:56:37 2019
GPGPU-Sim PTX: 1600000 instructions simulated : ctaid=(13,3,0) tid=(15,1,0)
GPGPU-Sim PTX: 1700000 instructions simulated : ctaid=(0,1,0) tid=(15,3,0)
GPGPU-Sim PTX: 1800000 instructions simulated : ctaid=(13,1,0) tid=(15,1,0)
GPGPU-Sim PTX: 1900000 instructions simulated : ctaid=(8,2,0) tid=(15,5,0)
GPGPU-Sim PTX: 2000000 instructions simulated : ctaid=(12,0,0) tid=(15,7,0)
GPGPU-Sim PTX: 2100000 instructions simulated : ctaid=(8,1,0) tid=(15,5,0)
GPGPU-Sim PTX: 2200000 instructions simulated : ctaid=(3,2,0) tid=(15,5,0)
GPGPU-Sim uArch: cycles simulated: 10500  inst.: 2199360 (ipc=209.5) sim_rate=274920 (inst/sec) elapsed = 0:0:00:08 / Tue Apr 16 16:56:38 2019
GPGPU-Sim PTX: 2300000 instructions simulated : ctaid=(0,1,0) tid=(15,5,0)
GPGPU-Sim PTX: 2400000 instructions simulated : ctaid=(1,4,0) tid=(15,5,0)
GPGPU-Sim PTX: 2500000 instructions simulated : ctaid=(4,3,0) tid=(15,3,0)
GPGPU-Sim uArch: cycles simulated: 11000  inst.: 2521728 (ipc=229.2) sim_rate=280192 (inst/sec) elapsed = 0:0:00:09 / Tue Apr 16 16:56:39 2019
GPGPU-Sim PTX: 2600000 instructions simulated : ctaid=(5,3,0) tid=(15,5,0)
GPGPU-Sim PTX: 2700000 instructions simulated : ctaid=(11,0,0) tid=(15,1,0)
GPGPU-Sim PTX: 2800000 instructions simulated : ctaid=(10,0,0) tid=(15,7,0)
GPGPU-Sim PTX: 2900000 instructions simulated : ctaid=(13,2,0) tid=(15,3,0)
GPGPU-Sim uArch: cycles simulated: 11500  inst.: 2899488 (ipc=252.1) sim_rate=289948 (inst/sec) elapsed = 0:0:00:10 / Tue Apr 16 16:56:40 2019
GPGPU-Sim PTX: 3000000 instructions simulated : ctaid=(6,1,0) tid=(15,5,0)
GPGPU-Sim PTX: 3100000 instructions simulated : ctaid=(3,4,0) tid=(15,1,0)
GPGPU-Sim PTX: 3200000 instructions simulated : ctaid=(5,1,0) tid=(15,3,0)
GPGPU-Sim PTX: 3300000 instructions simulated : ctaid=(11,3,0) tid=(15,7,0)
GPGPU-Sim PTX: 3400000 instructions simulated : ctaid=(0,4,0) tid=(15,7,0)
GPGPU-Sim uArch: cycles simulated: 12500  inst.: 3382176 (ipc=270.6) sim_rate=307470 (inst/sec) elapsed = 0:0:00:11 / Tue Apr 16 16:56:41 2019
GPGPU-Sim PTX: 3500000 instructions simulated : ctaid=(11,0,0) tid=(15,3,0)
GPGPU-Sim PTX: 3600000 instructions simulated : ctaid=(14,0,0) tid=(15,3,0)
GPGPU-Sim PTX: 3700000 instructions simulated : ctaid=(10,3,0) tid=(15,5,0)
GPGPU-Sim uArch: cycles simulated: 13500  inst.: 3667936 (ipc=271.7) sim_rate=305661 (inst/sec) elapsed = 0:0:00:12 / Tue Apr 16 16:56:42 2019
GPGPU-Sim PTX: 3800000 instructions simulated : ctaid=(2,0,0) tid=(15,7,0)
GPGPU-Sim PTX: 3900000 instructions simulated : ctaid=(4,2,0) tid=(15,1,0)
GPGPU-Sim PTX: 4000000 instructions simulated : ctaid=(7,4,0) tid=(15,3,0)
GPGPU-Sim PTX: 4100000 instructions simulated : ctaid=(3,2,0) tid=(15,3,0)
GPGPU-Sim uArch: cycles simulated: 14500  inst.: 4012800 (ipc=276.7) sim_rate=308676 (inst/sec) elapsed = 0:0:00:13 / Tue Apr 16 16:56:43 2019
GPGPU-Sim PTX: 4200000 instructions simulated : ctaid=(1,4,0) tid=(15,5,0)
GPGPU-Sim PTX: 4300000 instructions simulated : ctaid=(11,2,0) tid=(15,7,0)
GPGPU-Sim PTX: 4400000 instructions simulated : ctaid=(1,4,0) tid=(15,1,0)
GPGPU-Sim PTX: 4500000 instructions simulated : ctaid=(8,3,0) tid=(15,3,0)
GPGPU-Sim PTX: 4600000 instructions simulated : ctaid=(3,2,0) tid=(12,0,0)
GPGPU-Sim PTX: 4700000 instructions simulated : ctaid=(8,0,0) tid=(6,2,0)
GPGPU-Sim uArch: cycles simulated: 16000  inst.: 4590336 (ipc=286.9) sim_rate=327881 (inst/sec) elapsed = 0:0:00:14 / Tue Apr 16 16:56:44 2019
GPGPU-Sim PTX: 4800000 instructions simulated : ctaid=(7,0,0) tid=(15,2,0)
GPGPU-Sim PTX: 4900000 instructions simulated : ctaid=(8,2,0) tid=(15,2,0)
GPGPU-Sim PTX: 5000000 instructions simulated : ctaid=(1,0,0) tid=(15,0,0)
GPGPU-Sim PTX: 5100000 instructions simulated : ctaid=(6,3,0) tid=(15,2,0)
GPGPU-Sim uArch: cycles simulated: 16500  inst.: 4982224 (ipc=302.0) sim_rate=332148 (inst/sec) elapsed = 0:0:00:15 / Tue Apr 16 16:56:45 2019
GPGPU-Sim PTX: 5200000 instructions simulated : ctaid=(2,0,0) tid=(15,4,0)
GPGPU-Sim PTX: 5300000 instructions simulated : ctaid=(6,3,0) tid=(15,0,0)
GPGPU-Sim PTX: 5400000 instructions simulated : ctaid=(8,2,0) tid=(8,2,0)
GPGPU-Sim PTX: 5500000 instructions simulated : ctaid=(3,3,0) tid=(9,0,0)
GPGPU-Sim PTX: 5600000 instructions simulated : ctaid=(0,4,0) tid=(3,1,0)
GPGPU-Sim PTX: 5700000 instructions simulated : ctaid=(8,0,0) tid=(5,7,0)
GPGPU-Sim PTX: 5800000 instructions simulated : ctaid=(2,3,0) tid=(4,3,0)
GPGPU-Sim uArch: cycles simulated: 17500  inst.: 5708264 (ipc=326.2) sim_rate=356766 (inst/sec) elapsed = 0:0:00:16 / Tue Apr 16 16:56:46 2019
GPGPU-Sim PTX: 5900000 instructions simulated : ctaid=(12,1,0) tid=(7,5,0)
GPGPU-Sim PTX: 6000000 instructions simulated : ctaid=(14,3,0) tid=(15,6,0)
GPGPU-Sim PTX: 6100000 instructions simulated : ctaid=(10,4,0) tid=(11,1,0)
GPGPU-Sim uArch: cycles simulated: 18000  inst.: 5948100 (ipc=330.4) sim_rate=349888 (inst/sec) elapsed = 0:0:00:17 / Tue Apr 16 16:56:47 2019
GPGPU-Sim PTX: 6200000 instructions simulated : ctaid=(2,1,0) tid=(11,3,0)
GPGPU-Sim PTX: 6300000 instructions simulated : ctaid=(11,2,0) tid=(11,1,0)
GPGPU-Sim PTX: 6400000 instructions simulated : ctaid=(8,2,0) tid=(11,1,0)
GPGPU-Sim uArch: cycles simulated: 19500  inst.: 6240100 (ipc=320.0) sim_rate=346672 (inst/sec) elapsed = 0:0:00:18 / Tue Apr 16 16:56:48 2019
GPGPU-Sim PTX: 6500000 instructions simulated : ctaid=(14,2,0) tid=(6,2,0)
GPGPU-Sim PTX: 6600000 instructions simulated : ctaid=(1,4,0) tid=(11,3,0)
GPGPU-Sim PTX: 6700000 instructions simulated : ctaid=(11,3,0) tid=(11,5,0)
GPGPU-Sim uArch: cycles simulated: 20500  inst.: 6576356 (ipc=320.8) sim_rate=346124 (inst/sec) elapsed = 0:0:00:19 / Tue Apr 16 16:56:49 2019
GPGPU-Sim PTX: 6800000 instructions simulated : ctaid=(3,0,0) tid=(11,1,0)
GPGPU-Sim PTX: 6900000 instructions simulated : ctaid=(14,0,0) tid=(11,3,0)
GPGPU-Sim PTX: 7000000 instructions simulated : ctaid=(7,4,0) tid=(11,1,0)
GPGPU-Sim PTX: 7100000 instructions simulated : ctaid=(13,1,0) tid=(11,7,0)
GPGPU-Sim uArch: cycles simulated: 21500  inst.: 6964260 (ipc=323.9) sim_rate=348213 (inst/sec) elapsed = 0:0:00:20 / Tue Apr 16 16:56:50 2019
GPGPU-Sim PTX: 7200000 instructions simulated : ctaid=(9,2,0) tid=(11,5,0)
GPGPU-Sim PTX: 7300000 instructions simulated : ctaid=(4,2,0) tid=(11,5,0)
GPGPU-Sim PTX: 7400000 instructions simulated : ctaid=(4,2,0) tid=(11,3,0)
GPGPU-Sim PTX: 7500000 instructions simulated : ctaid=(0,2,0) tid=(11,3,0)
GPGPU-Sim uArch: cycles simulated: 22500  inst.: 7301316 (ipc=324.5) sim_rate=347681 (inst/sec) elapsed = 0:0:00:21 / Tue Apr 16 16:56:51 2019
GPGPU-Sim PTX: 7600000 instructions simulated : ctaid=(9,0,0) tid=(11,1,0)
GPGPU-Sim PTX: 7700000 instructions simulated : ctaid=(10,3,0) tid=(11,5,0)
GPGPU-Sim PTX: 7800000 instructions simulated : ctaid=(9,3,0) tid=(11,3,0)
GPGPU-Sim uArch: cycles simulated: 23500  inst.: 7650180 (ipc=325.5) sim_rate=347735 (inst/sec) elapsed = 0:0:00:22 / Tue Apr 16 16:56:52 2019
GPGPU-Sim PTX: 7900000 instructions simulated : ctaid=(13,1,0) tid=(11,3,0)
GPGPU-Sim PTX: 8000000 instructions simulated : ctaid=(12,0,0) tid=(11,3,0)
GPGPU-Sim PTX: 8100000 instructions simulated : ctaid=(0,1,0) tid=(11,3,0)
GPGPU-Sim PTX: 8200000 instructions simulated : ctaid=(1,0,0) tid=(11,5,0)
GPGPU-Sim PTX: 8300000 instructions simulated : ctaid=(11,3,0) tid=(11,5,0)
GPGPU-Sim PTX: 8400000 instructions simulated : ctaid=(8,3,0) tid=(11,1,0)
GPGPU-Sim PTX: 8500000 instructions simulated : ctaid=(6,3,0) tid=(11,1,0)
GPGPU-Sim uArch: cycles simulated: 25000  inst.: 8293700 (ipc=331.7) sim_rate=360595 (inst/sec) elapsed = 0:0:00:23 / Tue Apr 16 16:56:53 2019
GPGPU-Sim PTX: 8600000 instructions simulated : ctaid=(11,1,0) tid=(11,5,0)
GPGPU-Sim PTX: 8700000 instructions simulated : ctaid=(2,0,0) tid=(15,4,0)
GPGPU-Sim PTX: 8800000 instructions simulated : ctaid=(5,1,0) tid=(13,6,0)
GPGPU-Sim PTX: 8900000 instructions simulated : ctaid=(15,1,0) tid=(11,1,0)
GPGPU-Sim uArch: cycles simulated: 25500  inst.: 8683556 (ipc=340.5) sim_rate=361814 (inst/sec) elapsed = 0:0:00:24 / Tue Apr 16 16:56:54 2019
GPGPU-Sim PTX: 9000000 instructions simulated : ctaid=(5,0,0) tid=(0,7,0)
GPGPU-Sim PTX: 9100000 instructions simulated : ctaid=(14,3,0) tid=(14,0,0)
GPGPU-Sim PTX: 9200000 instructions simulated : ctaid=(12,1,0) tid=(5,2,0)
GPGPU-Sim PTX: 9300000 instructions simulated : ctaid=(1,2,0) tid=(7,7,0)
GPGPU-Sim uArch: cycles simulated: 26000  inst.: 9084847 (ipc=349.4) sim_rate=363393 (inst/sec) elapsed = 0:0:00:25 / Tue Apr 16 16:56:55 2019
GPGPU-Sim PTX: 9400000 instructions simulated : ctaid=(6,0,0) tid=(9,5,0)
GPGPU-Sim PTX: 9500000 instructions simulated : ctaid=(10,4,0) tid=(10,4,0)
GPGPU-Sim PTX: 9600000 instructions simulated : ctaid=(0,4,0) tid=(10,0,0)
GPGPU-Sim PTX: 9700000 instructions simulated : ctaid=(6,0,0) tid=(8,0,0)
GPGPU-Sim PTX: 9800000 instructions simulated : ctaid=(5,0,0) tid=(5,2,0)
GPGPU-Sim PTX: 9900000 instructions simulated : ctaid=(0,3,0) tid=(15,7,0)
GPGPU-Sim PTX: 10000000 instructions simulated : ctaid=(4,4,0) tid=(4,2,0)
GPGPU-Sim uArch: cycles simulated: 27000  inst.: 9748445 (ipc=361.1) sim_rate=374940 (inst/sec) elapsed = 0:0:00:26 / Tue Apr 16 16:56:56 2019
GPGPU-Sim PTX: 10100000 instructions simulated : ctaid=(13,2,0) tid=(13,1,0)
GPGPU-Sim PTX: 10200000 instructions simulated : ctaid=(7,3,0) tid=(13,2,0)
GPGPU-Sim uArch: cycles simulated: 28000  inst.: 9968355 (ipc=356.0) sim_rate=369198 (inst/sec) elapsed = 0:0:00:27 / Tue Apr 16 16:56:57 2019
GPGPU-Sim PTX: 10300000 instructions simulated : ctaid=(10,1,0) tid=(14,6,0)
GPGPU-Sim PTX: 10400000 instructions simulated : ctaid=(4,0,0) tid=(11,3,0)
GPGPU-Sim uArch: Shader 0 finished CTA #1 (28531,0), 4 CTAs running
GPGPU-Sim uArch: core:  0, cta: 1 initialized @(28532,0)
GPGPU-Sim uArch: Shader 14 finished CTA #0 (28533,0), 4 CTAs running
GPGPU-Sim uArch: core: 14, cta: 0 initialized @(28534,0)
GPGPU-Sim uArch: Shader 5 finished CTA #2 (28551,0), 4 CTAs running
GPGPU-Sim uArch: core:  5, cta: 2 initialized @(28552,0)
GPGPU-Sim uArch: Shader 0 finished CTA #0 (28585,0), 4 CTAs running
GPGPU-Sim uArch: core:  0, cta: 0 initialized @(28586,0)
GPGPU-Sim uArch: Shader 1 finished CTA #1 (28589,0), 4 CTAs running
GPGPU-Sim uArch: core:  1, cta: 1 initialized @(28590,0)
GPGPU-Sim uArch: Shader 0 finished CTA #2 (28609,0), 4 CTAs running
GPGPU-Sim uArch: core:  0, cta: 2 initialized @(28610,0)
GPGPU-Sim uArch: Shader 0 finished CTA #3 (28618,0), 4 CTAs running
GPGPU-Sim uArch: core:  0, cta: 3 initialized @(28619,0)
GPGPU-Sim uArch: Shader 2 finished CTA #1 (28627,0), 4 CTAs running
GPGPU-Sim uArch: core:  2, cta: 1 initialized @(28628,0)
GPGPU-Sim uArch: Shader 0 finished CTA #4 (28633,0), 4 CTAs running
GPGPU-Sim uArch: core:  0, cta: 4 initialized @(28634,0)
GPGPU-Sim uArch: Shader 2 finished CTA #2 (28635,0), 4 CTAs running
GPGPU-Sim uArch: core:  2, cta: 2 initialized @(28636,0)
GPGPU-Sim uArch: Shader 1 finished CTA #0 (28653,0), 4 CTAs running
GPGPU-Sim uArch: core:  1, cta: 0 initialized @(28654,0)
GPGPU-Sim uArch: Shader 5 finished CTA #3 (28662,0), 4 CTAs running
GPGPU-Sim uArch: core:  5, cta: 3 initialized @(28663,0)
GPGPU-Sim uArch: Shader 8 finished CTA #3 (28673,0), 4 CTAs running
GPGPU-Sim uArch: core:  8, cta: 3 initialized @(28674,0)
GPGPU-Sim uArch: Shader 1 finished CTA #3 (28675,0), 4 CTAs running
GPGPU-Sim uArch: core:  1, cta: 3 initialized @(28676,0)
GPGPU-Sim uArch: Shader 4 finished CTA #2 (28677,0), 4 CTAs running
GPGPU-Sim uArch: core:  4, cta: 2 initialized @(28678,0)
GPGPU-Sim uArch: Shader 2 finished CTA #0 (28681,0), 4 CTAs running
GPGPU-Sim uArch: core:  2, cta: 0 initialized @(28682,0)
GPGPU-Sim uArch: Shader 1 finished CTA #2 (28693,0), 4 CTAs running
GPGPU-Sim uArch: core:  1, cta: 2 initialized @(28694,0)
GPGPU-Sim uArch: Shader 5 finished CTA #4 (28700,0), 4 CTAs running
GPGPU-Sim uArch: core:  5, cta: 4 initialized @(28701,0)
GPGPU-Sim uArch: Shader 1 finished CTA #4 (28701,0), 4 CTAs running
GPGPU-Sim uArch: core:  1, cta: 4 initialized @(28702,0)
GPGPU-Sim uArch: Shader 8 finished CTA #2 (28709,0), 4 CTAs running
GPGPU-Sim uArch: core:  8, cta: 2 initialized @(28710,0)
GPGPU-Sim uArch: Shader 2 finished CTA #3 (28725,0), 4 CTAs running
GPGPU-Sim uArch: core:  2, cta: 3 initialized @(28726,0)
GPGPU-Sim uArch: Shader 2 finished CTA #4 (28737,0), 4 CTAs running
GPGPU-Sim uArch: Shader 7 finished CTA #3 (28737,0), 4 CTAs running
GPGPU-Sim uArch: core:  7, cta: 3 initialized @(28738,0)
GPGPU-Sim uArch: core:  2, cta: 4 initialized @(28738,0)
GPGPU-Sim uArch: Shader 8 finished CTA #4 (28745,0), 4 CTAs running
GPGPU-Sim uArch: core:  8, cta: 4 initialized @(28746,0)
GPGPU-Sim uArch: Shader 9 finished CTA #3 (28757,0), 4 CTAs running
GPGPU-Sim uArch: core:  9, cta: 3 initialized @(28758,0)
GPGPU-Sim uArch: Shader 4 finished CTA #1 (28759,0), 4 CTAs running
GPGPU-Sim uArch: core:  4, cta: 1 initialized @(28760,0)
GPGPU-Sim uArch: Shader 3 finished CTA #0 (28767,0), 4 CTAs running
GPGPU-Sim uArch: core:  3, cta: 0 initialized @(28768,0)
GPGPU-Sim uArch: Shader 7 finished CTA #4 (28780,0), 4 CTAs running
GPGPU-Sim uArch: core:  7, cta: 4 initialized @(28781,0)
GPGPU-Sim uArch: Shader 4 finished CTA #3 (28786,0), 4 CTAs running
GPGPU-Sim uArch: core:  4, cta: 3 initialized @(28787,0)
GPGPU-Sim uArch: Shader 6 finished CTA #2 (28787,0), 4 CTAs running
GPGPU-Sim uArch: core:  6, cta: 2 initialized @(28788,0)
GPGPU-Sim uArch: Shader 9 finished CTA #4 (28789,0), 4 CTAs running
GPGPU-Sim uArch: core:  9, cta: 4 initialized @(28790,0)
GPGPU-Sim uArch: Shader 3 finished CTA #1 (28805,0), 4 CTAs running
GPGPU-Sim uArch: core:  3, cta: 1 initialized @(28806,0)
GPGPU-Sim uArch: Shader 6 finished CTA #3 (28809,0), 4 CTAs running
GPGPU-Sim uArch: core:  6, cta: 3 initialized @(28810,0)
GPGPU-Sim uArch: Shader 6 finished CTA #4 (28817,0), 4 CTAs running
GPGPU-Sim uArch: core:  6, cta: 4 initialized @(28818,0)
GPGPU-Sim PTX: 10500000 instructions simulated : ctaid=(12,5,0) tid=(4,4,0)
GPGPU-Sim uArch: Shader 4 finished CTA #4 (28824,0), 4 CTAs running
GPGPU-Sim uArch: core:  4, cta: 4 initialized @(28825,0)
GPGPU-Sim uArch: Shader 3 finished CTA #2 (28837,0), 4 CTAs running
GPGPU-Sim uArch: core:  3, cta: 2 initialized @(28838,0)
GPGPU-Sim uArch: Shader 3 finished CTA #3 (28853,0), 4 CTAs running
GPGPU-Sim uArch: core:  3, cta: 3 initialized @(28854,0)
GPGPU-Sim uArch: Shader 3 finished CTA #4 (28861,0), 4 CTAs running
GPGPU-Sim uArch: core:  3, cta: 4 initialized @(28862,0)
GPGPU-Sim uArch: Shader 10 finished CTA #4 (28945,0), 4 CTAs running
GPGPU-Sim uArch: core: 10, cta: 4 initialized @(28946,0)
GPGPU-Sim uArch: cycles simulated: 29000  inst.: 10289074 (ipc=354.8) sim_rate=367466 (inst/sec) elapsed = 0:0:00:28 / Tue Apr 16 16:56:58 2019
GPGPU-Sim PTX: 10600000 instructions simulated : ctaid=(9,5,0) tid=(14,0,0)
GPGPU-Sim PTX: 10700000 instructions simulated : ctaid=(8,3,0) tid=(11,6,0)
GPGPU-Sim uArch: cycles simulated: 29500  inst.: 10435936 (ipc=353.8) sim_rate=359859 (inst/sec) elapsed = 0:0:00:29 / Tue Apr 16 16:56:59 2019
GPGPU-Sim PTX: 10800000 instructions simulated : ctaid=(4,5,0) tid=(13,5,0)
GPGPU-Sim PTX: 10900000 instructions simulated : ctaid=(2,6,0) tid=(15,7,0)
GPGPU-Sim PTX: 11000000 instructions simulated : ctaid=(10,0,0) tid=(5,3,0)
GPGPU-Sim PTX: 11100000 instructions simulated : ctaid=(11,1,0) tid=(0,1,0)
GPGPU-Sim uArch: cycles simulated: 30500  inst.: 10809185 (ipc=354.4) sim_rate=360306 (inst/sec) elapsed = 0:0:00:30 / Tue Apr 16 16:57:00 2019
GPGPU-Sim PTX: 11200000 instructions simulated : ctaid=(5,1,0) tid=(11,2,0)
GPGPU-Sim PTX: 11300000 instructions simulated : ctaid=(2,5,0) tid=(1,3,0)
GPGPU-Sim uArch: cycles simulated: 31000  inst.: 11058074 (ipc=356.7) sim_rate=356712 (inst/sec) elapsed = 0:0:00:31 / Tue Apr 16 16:57:01 2019
GPGPU-Sim PTX: 11400000 instructions simulated : ctaid=(7,3,0) tid=(12,4,0)
GPGPU-Sim PTX: 11500000 instructions simulated : ctaid=(12,6,0) tid=(5,7,0)
GPGPU-Sim PTX: 11600000 instructions simulated : ctaid=(7,1,0) tid=(12,5,0)
GPGPU-Sim PTX: 11700000 instructions simulated : ctaid=(0,7,0) tid=(0,4,0)
GPGPU-Sim PTX: 11800000 instructions simulated : ctaid=(0,7,0) tid=(4,1,0)
GPGPU-Sim uArch: cycles simulated: 32000  inst.: 11577295 (ipc=361.8) sim_rate=361790 (inst/sec) elapsed = 0:0:00:32 / Tue Apr 16 16:57:02 2019
GPGPU-Sim PTX: 11900000 instructions simulated : ctaid=(12,6,0) tid=(7,2,0)
GPGPU-Sim PTX: 12000000 instructions simulated : ctaid=(9,4,0) tid=(5,4,0)
GPGPU-Sim PTX: 12100000 instructions simulated : ctaid=(2,6,0) tid=(11,7,0)
GPGPU-Sim uArch: cycles simulated: 32500  inst.: 11864722 (ipc=365.1) sim_rate=359537 (inst/sec) elapsed = 0:0:00:33 / Tue Apr 16 16:57:03 2019
GPGPU-Sim PTX: 12200000 instructions simulated : ctaid=(12,4,0) tid=(5,2,0)
GPGPU-Sim PTX: 12300000 instructions simulated : ctaid=(10,5,0) tid=(3,5,0)
GPGPU-Sim uArch: Shader 7 finished CTA #2 (32737,0), 4 CTAs running
GPGPU-Sim uArch: core:  7, cta: 2 initialized @(32738,0)
GPGPU-Sim PTX: 12400000 instructions simulated : ctaid=(9,5,0) tid=(14,1,0)
GPGPU-Sim PTX: 12500000 instructions simulated : ctaid=(8,5,0) tid=(7,5,0)
GPGPU-Sim uArch: cycles simulated: 33000  inst.: 12176951 (ipc=369.0) sim_rate=358145 (inst/sec) elapsed = 0:0:00:34 / Tue Apr 16 16:57:04 2019
GPGPU-Sim PTX: 12600000 instructions simulated : ctaid=(2,7,0) tid=(6,0,0)
GPGPU-Sim PTX: 12700000 instructions simulated : ctaid=(9,1,0) tid=(7,7,0)
GPGPU-Sim uArch: Shader 14 finished CTA #2 (33322,0), 4 CTAs running
GPGPU-Sim uArch: core: 14, cta: 2 initialized @(33323,0)
GPGPU-Sim PTX: 12800000 instructions simulated : ctaid=(11,4,0) tid=(9,3,0)
GPGPU-Sim PTX: 12900000 instructions simulated : ctaid=(0,5,0) tid=(6,2,0)
GPGPU-Sim PTX: 13000000 instructions simulated : ctaid=(13,5,0) tid=(1,2,0)
GPGPU-Sim PTX: 13100000 instructions simulated : ctaid=(6,0,0) tid=(9,2,0)
GPGPU-Sim uArch: cycles simulated: 34000  inst.: 12760086 (ipc=375.3) sim_rate=364573 (inst/sec) elapsed = 0:0:00:35 / Tue Apr 16 16:57:05 2019
GPGPU-Sim PTX: 13200000 instructions simulated : ctaid=(6,6,0) tid=(4,4,0)
GPGPU-Sim PTX: 13300000 instructions simulated : ctaid=(8,5,0) tid=(12,5,0)
GPGPU-Sim uArch: cycles simulated: 34500  inst.: 13026496 (ipc=377.6) sim_rate=361847 (inst/sec) elapsed = 0:0:00:36 / Tue Apr 16 16:57:06 2019
GPGPU-Sim PTX: 13400000 instructions simulated : ctaid=(9,3,0) tid=(3,4,0)
GPGPU-Sim PTX: 13500000 instructions simulated : ctaid=(4,5,0) tid=(14,6,0)
GPGPU-Sim PTX: 13600000 instructions simulated : ctaid=(15,5,0) tid=(6,2,0)
GPGPU-Sim PTX: 13700000 instructions simulated : ctaid=(7,1,0) tid=(10,1,0)
GPGPU-Sim PTX: 13800000 instructions simulated : ctaid=(0,7,0) tid=(1,2,0)
GPGPU-Sim PTX: 13900000 instructions simulated : ctaid=(3,5,0) tid=(1,5,0)
GPGPU-Sim uArch: cycles simulated: 35500  inst.: 13540331 (ipc=381.4) sim_rate=365954 (inst/sec) elapsed = 0:0:00:37 / Tue Apr 16 16:57:07 2019
GPGPU-Sim PTX: 14000000 instructions simulated : ctaid=(7,1,0) tid=(6,6,0)
GPGPU-Sim PTX: 14100000 instructions simulated : ctaid=(2,7,0) tid=(13,3,0)
GPGPU-Sim uArch: cycles simulated: 36000  inst.: 13802123 (ipc=383.4) sim_rate=363213 (inst/sec) elapsed = 0:0:00:38 / Tue Apr 16 16:57:08 2019
GPGPU-Sim PTX: 14200000 instructions simulated : ctaid=(2,5,0) tid=(6,2,0)
GPGPU-Sim PTX: 14300000 instructions simulated : ctaid=(6,0,0) tid=(9,7,0)
GPGPU-Sim PTX: 14400000 instructions simulated : ctaid=(11,6,0) tid=(13,4,0)
GPGPU-Sim PTX: 14500000 instructions simulated : ctaid=(0,6,0) tid=(14,2,0)
GPGPU-Sim PTX: 14600000 instructions simulated : ctaid=(14,4,0) tid=(13,0,0)
GPGPU-Sim PTX: 14700000 instructions simulated : ctaid=(13,4,0) tid=(8,2,0)
GPGPU-Sim uArch: cycles simulated: 37000  inst.: 14390675 (ipc=388.9) sim_rate=368991 (inst/sec) elapsed = 0:0:00:39 / Tue Apr 16 16:57:09 2019
GPGPU-Sim PTX: 14800000 instructions simulated : ctaid=(11,0,0) tid=(11,1,0)
GPGPU-Sim PTX: 14900000 instructions simulated : ctaid=(14,6,0) tid=(5,3,0)
GPGPU-Sim PTX: 15000000 instructions simulated : ctaid=(8,3,0) tid=(1,7,0)
GPGPU-Sim PTX: 15100000 instructions simulated : ctaid=(6,6,0) tid=(5,5,0)
GPGPU-Sim uArch: cycles simulated: 37500  inst.: 14709256 (ipc=392.2) sim_rate=367731 (inst/sec) elapsed = 0:0:00:40 / Tue Apr 16 16:57:10 2019
GPGPU-Sim PTX: 15200000 instructions simulated : ctaid=(12,4,0) tid=(10,1,0)
GPGPU-Sim PTX: 15300000 instructions simulated : ctaid=(6,0,0) tid=(8,7,0)
GPGPU-Sim PTX: 15400000 instructions simulated : ctaid=(9,0,0) tid=(5,4,0)
GPGPU-Sim uArch: Shader 14 finished CTA #3 (38071,0), 4 CTAs running
GPGPU-Sim uArch: core: 14, cta: 3 initialized @(38072,0)
GPGPU-Sim PTX: 15500000 instructions simulated : ctaid=(8,6,0) tid=(12,5,0)
GPGPU-Sim PTX: 15600000 instructions simulated : ctaid=(6,2,0) tid=(10,0,0)
GPGPU-Sim uArch: cycles simulated: 38500  inst.: 15261445 (ipc=396.4) sim_rate=372230 (inst/sec) elapsed = 0:0:00:41 / Tue Apr 16 16:57:11 2019
GPGPU-Sim PTX: 15700000 instructions simulated : ctaid=(9,5,0) tid=(0,2,0)
GPGPU-Sim PTX: 15800000 instructions simulated : ctaid=(1,6,0) tid=(14,3,0)
GPGPU-Sim uArch: cycles simulated: 39000  inst.: 15454011 (ipc=396.3) sim_rate=367952 (inst/sec) elapsed = 0:0:00:42 / Tue Apr 16 16:57:12 2019
GPGPU-Sim PTX: 15900000 instructions simulated : ctaid=(2,5,0) tid=(2,7,0)
GPGPU-Sim PTX: 16000000 instructions simulated : ctaid=(12,6,0) tid=(14,0,0)
GPGPU-Sim uArch: Shader 13 finished CTA #2 (39455,0), 4 CTAs running
GPGPU-Sim uArch: core: 13, cta: 2 initialized @(39456,0)
GPGPU-Sim PTX: 16100000 instructions simulated : ctaid=(4,0,0) tid=(8,5,0)
GPGPU-Sim PTX: 16200000 instructions simulated : ctaid=(10,0,0) tid=(12,6,0)
GPGPU-Sim PTX: 16300000 instructions simulated : ctaid=(7,3,0) tid=(14,4,0)
GPGPU-Sim uArch: cycles simulated: 40000  inst.: 15878880 (ipc=397.0) sim_rate=369276 (inst/sec) elapsed = 0:0:00:43 / Tue Apr 16 16:57:13 2019
GPGPU-Sim PTX: 16400000 instructions simulated : ctaid=(13,4,0) tid=(14,3,0)
GPGPU-Sim PTX: 16500000 instructions simulated : ctaid=(0,7,0) tid=(4,5,0)
GPGPU-Sim uArch: cycles simulated: 40500  inst.: 16126874 (ipc=398.2) sim_rate=366519 (inst/sec) elapsed = 0:0:00:44 / Tue Apr 16 16:57:14 2019
GPGPU-Sim PTX: 16600000 instructions simulated : ctaid=(8,3,0) tid=(13,3,0)
GPGPU-Sim PTX: 16700000 instructions simulated : ctaid=(9,6,0) tid=(6,7,0)
GPGPU-Sim PTX: 16800000 instructions simulated : ctaid=(8,6,0) tid=(8,7,0)
GPGPU-Sim PTX: 16900000 instructions simulated : ctaid=(5,5,0) tid=(11,0,0)
GPGPU-Sim PTX: 17000000 instructions simulated : ctaid=(8,3,0) tid=(6,7,0)
GPGPU-Sim uArch: cycles simulated: 41500  inst.: 16614963 (ipc=400.4) sim_rate=369221 (inst/sec) elapsed = 0:0:00:45 / Tue Apr 16 16:57:15 2019
GPGPU-Sim PTX: 17100000 instructions simulated : ctaid=(3,1,0) tid=(4,1,0)
GPGPU-Sim PTX: 17200000 instructions simulated : ctaid=(2,5,0) tid=(14,4,0)
GPGPU-Sim uArch: Shader 5 finished CTA #1 (41914,0), 4 CTAs running
GPGPU-Sim uArch: core:  5, cta: 1 initialized @(41915,0)
GPGPU-Sim PTX: 17300000 instructions simulated : ctaid=(9,5,0) tid=(3,7,0)
GPGPU-Sim uArch: cycles simulated: 42000  inst.: 16872073 (ipc=401.7) sim_rate=366784 (inst/sec) elapsed = 0:0:00:46 / Tue Apr 16 16:57:16 2019
GPGPU-Sim PTX: 17400000 instructions simulated : ctaid=(10,0,0) tid=(15,1,0)
GPGPU-Sim PTX: 17500000 instructions simulated : ctaid=(12,6,0) tid=(9,5,0)
GPGPU-Sim PTX: 17600000 instructions simulated : ctaid=(12,6,0) tid=(15,0,0)
GPGPU-Sim PTX: 17700000 instructions simulated : ctaid=(5,6,0) tid=(0,0,0)
GPGPU-Sim uArch: Shader 4 finished CTA #0 (42960,0), 4 CTAs running
GPGPU-Sim uArch: core:  4, cta: 0 initialized @(42961,0)
GPGPU-Sim uArch: cycles simulated: 43000  inst.: 17307639 (ipc=402.5) sim_rate=368247 (inst/sec) elapsed = 0:0:00:47 / Tue Apr 16 16:57:17 2019
GPGPU-Sim PTX: 17800000 instructions simulated : ctaid=(10,0,0) tid=(1,6,0)
GPGPU-Sim PTX: 17900000 instructions simulated : ctaid=(13,6,0) tid=(4,4,0)
GPGPU-Sim uArch: Shader 14 finished CTA #1 (43372,0), 4 CTAs running
GPGPU-Sim uArch: core: 14, cta: 1 initialized @(43373,0)
GPGPU-Sim PTX: 18000000 instructions simulated : ctaid=(1,5,0) tid=(12,4,0)
GPGPU-Sim uArch: Shader 14 finished CTA #0 (43459,0), 4 CTAs running
GPGPU-Sim uArch: core: 14, cta: 0 initialized @(43460,0)
GPGPU-Sim uArch: Shader 6 finished CTA #3 (43672,0), 4 CTAs running
GPGPU-Sim uArch: core:  6, cta: 3 initialized @(43673,0)
GPGPU-Sim uArch: Shader 9 finished CTA #3 (43678,0), 4 CTAs running
GPGPU-Sim uArch: core:  9, cta: 3 initialized @(43679,0)
GPGPU-Sim PTX: 18100000 instructions simulated : ctaid=(5,7,0) tid=(13,1,0)
GPGPU-Sim uArch: Shader 6 finished CTA #4 (43756,0), 4 CTAs running
GPGPU-Sim uArch: core:  6, cta: 4 initialized @(43757,0)
GPGPU-Sim uArch: Shader 6 finished CTA #1 (43804,0), 4 CTAs running
GPGPU-Sim uArch: core:  6, cta: 1 initialized @(43805,0)
GPGPU-Sim PTX: 18200000 instructions simulated : ctaid=(11,7,0) tid=(12,4,0)
GPGPU-Sim uArch: cycles simulated: 44000  inst.: 17767537 (ipc=403.8) sim_rate=370157 (inst/sec) elapsed = 0:0:00:48 / Tue Apr 16 16:57:18 2019
GPGPU-Sim uArch: Shader 11 finished CTA #4 (44074,0), 4 CTAs running
GPGPU-Sim uArch: core: 11, cta: 4 initialized @(44075,0)
GPGPU-Sim uArch: Shader 12 finished CTA #3 (44085,0), 4 CTAs running
GPGPU-Sim uArch: core: 12, cta: 3 initialized @(44086,0)
GPGPU-Sim PTX: 18300000 instructions simulated : ctaid=(0,5,0) tid=(15,2,0)
GPGPU-Sim PTX: 18400000 instructions simulated : ctaid=(3,7,0) tid=(12,5,0)
GPGPU-Sim uArch: Shader 4 finished CTA #1 (44460,0), 4 CTAs running
[...]
traffic_breakdown_memtocore[LOCAL_ACC_W] = 296296 {8:37037,}
maxmrqlatency = 628 
maxdqlatency = 0 
maxmflatency = 1999 
averagemflatency = 271 
max_icnt2mem_latency = 1092 
max_icnt2sh_latency = 141428 
mrq_lat_table:8905 	841 	803 	1530 	3222 	3052 	3137 	2012 	272 	10 	0 	0 	0 	0 	0 	0 	0 	0 	0 	0 	0 	0 	0 	0 	0 	0 	0 	0 	0 	0 	0 	0 	
dq_lat_table:0 	0 	0 	0 	0 	0 	0 	0 	0 	0 	0 	0 	0 	0 	0 	0 	0 	0 	0 	0 	0 	0 	0 	0 	0 	0 	0 	0 	0 	0 	0 	0 	
mf_lat_table:0 	0 	0 	0 	0 	0 	0 	40570 	7335 	4736 	851 	0 	0 	0 	0 	0 	0 	0 	0 	0 	0 	0 	0 	0 	0 	0 	0 	0 	0 	0 	0 	0 	
icnt2mem_lat_table:0 	0 	0 	20589 	10992 	9499 	22225 	2124 	2264 	509 	4 	0 	0 	0 	0 	0 	0 	0 	0 	0 	0 	0 	0 	0 	
icnt2sh_lat_table:0 	0 	0 	2280 	3193 	2282 	508 	0 	0 	186 	498 	1378 	3108 	2630 	6113 	9747 	18066 	3503 	0 	0 	0 	0 	0 	0 	
mf_lat_pw_table:0 	0 	0 	0 	0 	0 	0 	232 	7 	17 	2 	0 	0 	0 	0 	0 	0 	0 	0 	0 	0 	0 	0 	0 	0 	0 	0 	0 	0 	0 	0 	0 	
maximum concurrent accesses to same row:
dram[0]:        54        56        36        34        26        22        32        22        36        20        22        24        42        29        39        18 
dram[1]:        52        54        34        32        20        22        34        34        29        21        32        22        27        35        29        40 
dram[2]:        62        62        54        56        30        30        29        32        28        26        41        64        31        32        44        42 
dram[3]:        58        60        54        56        28        30        34        40        30        24        40        37        35        28        28        20 
dram[4]:        62        64        56        52        30        32        32        28        24        22        76        18        35        36        45        48 
dram[5]:        58        60        56        48        28        34        22        34        22        30        17        37        60        31        29        26 
maximum service time to same row:
dram[0]:     60991     36843     73762     42986     31778     23950     59803     32580     23700     24133     56787     32441     23698     53793     60752     26610 
dram[1]:     54372     29884     23676     38563     32250     29855     35235     29073     23644     28972     58310     49288     50527     55197     52476     47688 
dram[2]:     38649     41560     21578     49675     28540     39602     18416     57997     28211     43337     27590     30035     31402     31153     40093     53445 
dram[3]:     26121     41315     36721     39592     33498     44360     48286     17843     37498     37728     62804     48159     41456     48898     52970     34073 
dram[4]:     32791     50017     68497     29834     34639     31048     47706     22185     32025     26854     54917     32146     38922     35268     82659     25256 
dram[5]:     35487     41181     26635     50260     31125     32087     24128     25413     31154     35925     33824     43708     24183     59301     51868     63607 
average row accesses per activate:
dram[0]:  7.147059  7.366667  6.903226  6.285714  4.068965  4.103448  4.655738  3.551724  5.264151  4.909091  5.382979  4.421052  5.395833  6.552631  5.973684  5.195652 
dram[1]:  5.860465  7.566667  5.810811  5.230769  3.445946  3.468750  4.305555  3.927536  4.323944  4.421875  4.886793  4.846154  4.516129  6.666667  5.682927  6.882353 
dram[2]:  9.791667  8.258064  8.320000  8.074074  4.157895  4.236363  4.270270  5.423077  6.119048  5.235294  6.378378  5.951220  6.400000  5.818182  6.628572  6.969697 
dram[3]:  7.218750  6.914286 10.473684  7.645161  4.591837  3.529412  4.644068  4.178082  5.791667  5.132075  5.666667  5.260000  5.818182  5.437500  5.186047  5.170213 
dram[4]: 10.363636 18.166666 11.473684  7.200000  4.166667  3.913793  4.963636  3.768293  6.022727  5.166667  5.951220  4.527273  5.454545  5.265306  6.135135  6.805555 
dram[5]:  7.655172  9.478261  8.074074  6.333333  3.781250  3.678571  3.604938  4.444445  4.637931  6.214286  5.375000  5.357143  6.214286  8.096774  6.567567  6.444445 
average row locality = 23784/4427 = 5.372487
number of total memory accesses made:
dram[0]:         0         0         0         0         0         0         0         0         0         0         0         0         0         0         0         0 
dram[1]:         0         0         0         0         0         0         0         0         0         0         0         0         0         0         0         0 
dram[2]:         0         0         0         0         0         0         0         0         0         0         0         0         0         0         0         0 
dram[3]:         0         0         0         0         0         0         0         0         0         0         0         0         0         0         0         0 
dram[4]:         0         0         0         0         0         0         0         0         0         0         0         0         0         0         0         0 
dram[5]:         0         0         0         0         0         0         0         0         0         0         0         0         0         0         0         0 
total accesses: 0
min_bank_accesses = 0!
min_chip_accesses = 0!
number of total read accesses:
dram[0]:       113        96        92        92        96       100       117       124       123       121       111       117       118       111       103       108 
dram[1]:       115        99        92        85       105        90       126       113       135       123       111       112       121       116       105       105 
dram[2]:       104       115        90        94        97        96       126       118       120       121       109       107       114       114       106       105 
dram[3]:       103       104        85       100        90        98       115       129       120       123       107       112       114       117        99       107 
dram[4]:       102        99        94        94        90        93       114       127       123       116       109       112       110       115       102       108 
dram[5]:        98       100        93        87       100        83       121       114       121       118       114       107       116       115       107       105 
total reads: 10361
bank skew: 135/83 = 1.63
chip skew: 1753/1699 = 1.03
number of total write accesses:
dram[0]:       130       125       122       128       140       138       167       185       156       149       142       135       141       138       124       131 
dram[1]:       137       128       123       119       150       132       184       158       172       160       148       140       159       144       128       129 
dram[2]:       131       141       118       124       140       137       190       164       137       146       127       137       142       142       126       125 
dram[3]:       128       138       114       137       135       142       159       176       158       149       131       151       142       144       124       136 
dram[4]:       126       119       124       122       135       134       159       182       142       132       135       137       130       143       125       137 
dram[5]:       124       118       125       122       142       123       171       166       148       143       144       118       145       136       136       127 
total reads: 13423
bank skew: 190/114 = 1.67
chip skew: 2311/2182 = 1.06
average mf latency per bank:
dram[0]:        580       509       621       550       652       604       688       579       611       612       666       661       645       681       618       604
dram[1]:        537       519       571       594       560       617       584       628       528       566       614       625       594       588       574       589
dram[2]:        543       491       654       611       637       656       582       649       652       594       683       676       662       632       622       612
dram[3]:        523       514       666       572       620       600       639       575       589       588       648       652       651       603       628       578
dram[4]:        525       542       632       617       682       690       701       609       657       669       675       698       708       659       648       607
dram[5]:        506       533       588       570       563       662       595       603       612       594       595       706       599       613       556       586
maximum mf latency per bank:
dram[0]:       1295      1076      1674      1172      1999      1319      1373      1228      1356      1063      1289      1102      1497      1213      1244      1127
dram[1]:        985      1005      1318      1232      1284      1323      1277      1039      1064      1028      1095      1028       988       904       947       966
dram[2]:       1315      1333      1762      1750      1536      1530      1661      1442      1351      1508      1234      1318      1445      1273      1189      1332
dram[3]:       1138      1370      1535      1699      1341      1483      1218      1450      1156      1089      1000      1198      1148      1183      1053      1123
dram[4]:       1393      1514      1843      1844      1677      1619      1533      1589      1552      1374      1286      1359      1410      1402      1490      1311
dram[5]:       1365      1329      1802      1570      1635      1549      1784      1704      1337      1271      1235      1223      1320      1238      1312      1264

Number of Memory Banks Accessed per Memory Operation per Warp (from 0):
0	0	0	0	0	0	0	0	0	0	0	0	0	0	0	0	0	0	0	0	0	0	0	0	0	0	0	0	0	0	0	0	0	0	0	0	0	0	0	0	0	0	0	0	0	0	0	0	0	0	0	0	0	0	0	0	0	0	0	0	0	0	0	0	0	0	0	0	0	0	0	0	0	0	0	0	0	0	0	0	0	0	0	0	0	0	0	0	0	0	0	0	0	0	0	0	
Average # of Memory Banks Accessed per Memory Operation per Warp=-nan

position of mrq chosen
0	0	0	0	0	0	0	0	0	0	0	0	0	0	0	0	

average position of mrq chosen = -nan
Memory Partition 0: 
Cache L2_bank_000:
MSHR contents

Cache L2_bank_001:
MSHR contents

In Dram Latency Queue (total = 0): 
DRAM[0]: 16 bks, busW=4 BL=8 CL=12, tRRD=2 tCCD=6, tRCD=12 tRAS=28 tRP=12 tRC=40
n_cmd=186685 n_nop=177637 n_act=776 n_pre=760 n_req=3993 n_rd=3484 n_write=4028 bw_util=0.08048
n_activity=35704 dram_eff=0.4208
bk0: 226a 179930i bk1: 192a 180510i bk2: 184a 179394i bk3: 184a 179576i bk4: 192a 177786i bk5: 200a 178039i bk6: 234a 175945i bk7: 248a 175676i bk8: 246a 178100i bk9: 242a 178138i bk10: 222a 177995i bk11: 234a 178265i bk12: 236a 177898i bk13: 222a 178343i bk14: 206a 179192i bk15: 216a 179049i 
dram_util_bins: 0 0 0 0 0 0 0 0 0 0
dram_eff_bins: 0 0 0 0 0 0 0 0 0 0
mrqq: max=16 avg=1.14714
Memory Partition 1: 
Cache L2_bank_002:
MSHR contents

Cache L2_bank_003:
MSHR contents

In Dram Latency Queue (total = 0): 
DRAM[1]: 16 bks, busW=4 BL=8 CL=12, tRRD=2 tCCD=6, tRCD=12 tRAS=28 tRP=12 tRC=40
n_cmd=186685 n_nop=177377 n_act=844 n_pre=828 n_req=4064 n_rd=3506 n_write=4130 bw_util=0.08181
n_activity=37427 dram_eff=0.408
bk0: 230a 179265i bk1: 198a 180250i bk2: 184a 179432i bk3: 170a 179968i bk4: 210a 176870i bk5: 180a 177570i bk6: 252a 175734i bk7: 226a 176727i bk8: 270a 177206i bk9: 246a 177401i bk10: 222a 178316i bk11: 224a 178029i bk12: 242a 177164i bk13: 232a 178786i bk14: 210a 179463i bk15: 210a 179288i 
dram_util_bins: 0 0 0 0 0 0 0 0 0 0
dram_eff_bins: 0 0 0 0 0 0 0 0 0 0
mrqq: max=16 avg=1.0995
Memory Partition 2: 
Cache L2_bank_004:
MSHR contents

Cache L2_bank_005:
MSHR contents

In Dram Latency Queue (total = 0): 
DRAM[2]: 16 bks, busW=4 BL=8 CL=12, tRRD=2 tCCD=6, tRCD=12 tRAS=28 tRP=12 tRC=40
n_cmd=186685 n_nop=177907 n_act=668 n_pre=652 n_req=3963 n_rd=3472 n_write=3986 bw_util=0.0799
n_activity=35287 dram_eff=0.4227
bk0: 208a 180268i bk1: 230a 180080i bk2: 180a 180410i bk3: 188a 179890i bk4: 194a 178225i bk5: 192a 178298i bk6: 252a 175313i bk7: 236a 176367i bk8: 240a 178358i bk9: 242a 178231i bk10: 218a 178535i bk11: 214a 179002i bk12: 228a 178128i bk13: 228a 177860i bk14: 212a 179349i bk15: 210a 179523i 
dram_util_bins: 0 0 0 0 0 0 0 0 0 0
dram_eff_bins: 0 0 0 0 0 0 0 0 0 0
mrqq: max=16 avg=1.14166
Memory Partition 3: 
Cache L2_bank_006:
MSHR contents

Cache L2_bank_007:
MSHR contents

In Dram Latency Queue (total = 0): 
DRAM[3]: 16 bks, busW=4 BL=8 CL=12, tRRD=2 tCCD=6, tRCD=12 tRAS=28 tRP=12 tRC=40
n_cmd=186685 n_nop=177728 n_act=741 n_pre=725 n_req=3987 n_rd=3446 n_write=4045 bw_util=0.08025
n_activity=36858 dram_eff=0.4065
bk0: 206a 180891i bk1: 208a 179926i bk2: 170a 180383i bk3: 200a 179692i bk4: 180a 179066i bk5: 196a 178208i bk6: 230a 177408i bk7: 258a 176562i bk8: 240a 178355i bk9: 246a 178196i bk10: 214a 178759i bk11: 224a 177825i bk12: 228a 178488i bk13: 234a 178146i bk14: 198a 179467i bk15: 214a 179127i 
dram_util_bins: 0 0 0 0 0 0 0 0 0 0
dram_eff_bins: 0 0 0 0 0 0 0 0 0 0
mrqq: max=16 avg=1.09426
Memory Partition 4: 
Cache L2_bank_008:
MSHR contents

Cache L2_bank_009:
MSHR contents

In Dram Latency Queue (total = 0): 
DRAM[4]: 16 bks, busW=4 BL=8 CL=12, tRRD=2 tCCD=6, tRCD=12 tRAS=28 tRP=12 tRC=40
n_cmd=186685 n_nop=178023 n_act=686 n_pre=670 n_req=3890 n_rd=3416 n_write=3890 bw_util=0.07827
n_activity=34746 dram_eff=0.4205
bk0: 204a 180596i bk1: 198a 181314i bk2: 188a 179867i bk3: 188a 179850i bk4: 180a 177983i bk5: 186a 177873i bk6: 228a 176114i bk7: 254a 175743i bk8: 246a 177820i bk9: 232a 178165i bk10: 218a 178346i bk11: 224a 178127i bk12: 220a 178226i bk13: 230a 177704i bk14: 204a 179528i bk15: 216a 179484i 
dram_util_bins: 0 0 0 0 0 0 0 0 0 0
dram_eff_bins: 0 0 0 0 0 0 0 0 0 0
mrqq: max=16 avg=1.16063
Memory Partition 5: 
Cache L2_bank_010:
MSHR contents

Cache L2_bank_011:
MSHR contents

In Dram Latency Queue (total = 0): 
DRAM[5]: 16 bks, busW=4 BL=8 CL=12, tRRD=2 tCCD=6, tRCD=12 tRAS=28 tRP=12 tRC=40
n_cmd=186685 n_nop=177982 n_act=712 n_pre=696 n_req=3887 n_rd=3398 n_write=3897 bw_util=0.07815
n_activity=36241 dram_eff=0.4026
bk0: 196a 180435i bk1: 200a 180930i bk2: 186a 179810i bk3: 174a 180324i bk4: 200a 177703i bk5: 166a 178929i bk6: 242a 176277i bk7: 228a 177107i bk8: 242a 178165i bk9: 236a 178697i bk10: 228a 178682i bk11: 214a 178878i bk12: 232a 178060i bk13: 230a 178398i bk14: 214a 179540i bk15: 210a 179464i 
dram_util_bins: 0 0 0 0 0 0 0 0 0 0
dram_eff_bins: 0 0 0 0 0 0 0 0 0 0
mrqq: max=16 avg=1.06768

========= L2 cache stats =========
L2_cache_bank[0]: Access = 5616, Miss = 873, Miss_rate = 0.155, Pending_hits = 89, Reservation_fails = 1111
L2_cache_bank[1]: Access = 5763, Miss = 869, Miss_rate = 0.151, Pending_hits = 78, Reservation_fails = 600
L2_cache_bank[2]: Access = 5599, Miss = 910, Miss_rate = 0.163, Pending_hits = 106, Reservation_fails = 940
L2_cache_bank[3]: Access = 5744, Miss = 843, Miss_rate = 0.147, Pending_hits = 81, Reservation_fails = 415
L2_cache_bank[4]: Access = 5449, Miss = 866, Miss_rate = 0.159, Pending_hits = 87, Reservation_fails = 894
L2_cache_bank[5]: Access = 5694, Miss = 870, Miss_rate = 0.153, Pending_hits = 80, Reservation_fails = 380
L2_cache_bank[6]: Access = 5777, Miss = 833, Miss_rate = 0.144, Pending_hits = 84, Reservation_fails = 379
L2_cache_bank[7]: Access = 5950, Miss = 890, Miss_rate = 0.150, Pending_hits = 85, Reservation_fails = 414
L2_cache_bank[8]: Access = 5741, Miss = 844, Miss_rate = 0.147, Pending_hits = 76, Reservation_fails = 644
L2_cache_bank[9]: Access = 5563, Miss = 864, Miss_rate = 0.155, Pending_hits = 81, Reservation_fails = 310
L2_cache_bank[10]: Access = 5723, Miss = 870, Miss_rate = 0.152, Pending_hits = 86, Reservation_fails = 629
L2_cache_bank[11]: Access = 5587, Miss = 829, Miss_rate = 0.148, Pending_hits = 76, Reservation_fails = 403
L2_total_cache_accesses = 68206
L2_total_cache_misses = 10361
L2_total_cache_miss_rate = 0.1519
L2_total_cache_pending_hits = 1009
L2_total_cache_reservation_fails = 7119
L2_total_cache_breakdown:
	L2_cache_stats_breakdown[GLOBAL_ACC_R][HIT] = 3567
	L2_cache_stats_breakdown[GLOBAL_ACC_R][HIT_RESERVED] = 10
	L2_cache_stats_breakdown[GLOBAL_ACC_R][MISS] = 84
	L2_cache_stats_breakdown[GLOBAL_ACC_R][RESERVATION_FAIL] = 366
	L2_cache_stats_breakdown[LOCAL_ACC_R][HIT] = 4313
	L2_cache_stats_breakdown[LOCAL_ACC_R][HIT_RESERVED] = 48
	L2_cache_stats_breakdown[LOCAL_ACC_R][MISS] = 211
	L2_cache_stats_breakdown[CONST_ACC_R][HIT] = 22
	L2_cache_stats_breakdown[CONST_ACC_R][HIT_RESERVED] = 6
	L2_cache_stats_breakdown[CONST_ACC_R][MISS] = 2
	L2_cache_stats_breakdown[CONST_ACC_R][RESERVATION_FAIL] = 574
	L2_cache_stats_breakdown[GLOBAL_ACC_W][HIT] = 5357
	L2_cache_stats_breakdown[GLOBAL_ACC_W][HIT_RESERVED] = 787
	L2_cache_stats_breakdown[GLOBAL_ACC_W][MISS] = 2048
	L2_cache_stats_breakdown[GLOBAL_ACC_W][RESERVATION_FAIL] = 7
	L2_cache_stats_breakdown[LOCAL_ACC_W][HIT] = 29438
	L2_cache_stats_breakdown[LOCAL_ACC_W][HIT_RESERVED] = 2
	L2_cache_stats_breakdown[LOCAL_ACC_W][MISS] = 7597
	L2_cache_stats_breakdown[LOCAL_ACC_W][RESERVATION_FAIL] = 178
	L2_cache_stats_breakdown[L1_WRBK_ACC][HIT] = 1224
	L2_cache_stats_breakdown[L1_WRBK_ACC][MISS] = 366
	L2_cache_stats_breakdown[INST_ACC_R][HIT] = 12915
	L2_cache_stats_breakdown[INST_ACC_R][HIT_RESERVED] = 156
	L2_cache_stats_breakdown[INST_ACC_R][MISS] = 53
	L2_cache_stats_breakdown[INST_ACC_R][RESERVATION_FAIL] = 5994
L2_cache_data_port_util = 0.127
L2_cache_fill_port_util = 0.024

icnt_total_pkts_mem_to_simt=152104
icnt_total_pkts_simt_to_mem=236631
LD_mem_lat_dist  0 0 0 0 0 0 0 0 0 0 0 0 0 0 0 0 0 0 0 0 0 0 0 0 0 0 0
ST_mem_lat_dist  0 0 0 0 0 0 0 0 0 0 0 0 0 0 0 0 0 0 0 0 0 0 0 0 0 0 0
----------------------------Interconnect-DETAILS--------------------------------
Class 0:
Packet latency average = 17.5015
	minimum = 6
	maximum = 703
Network latency average = 13.7949
	minimum = 6
	maximum = 678
Slowest packet = 707
Flit latency average = 13.1388
	minimum = 6
	maximum = 674
Slowest flit = 10925
Fragmentation average = 0.129704
	minimum = 0
	maximum = 551
Injected packet rate average = 0.0353068
	minimum = 0.0296686 (at node 12)
	maximum = 0.0408403 (at node 22)
Accepted packet rate average = 0.0353068
	minimum = 0.0281908 (at node 12)
	maximum = 0.0420706 (at node 22)
Injected flit rate average = 0.101801
	minimum = 0.0831513 (at node 19)
	maximum = 0.124981 (at node 1)
Accepted flit rate average= 0.101801
	minimum = 0.0639968 (at node 2)
	maximum = 0.142616 (at node 22)
Injected packet length average = 2.88332
Accepted packet length average = 2.88332
Total in-flight flits = 0 (0 measured)
====== Overall Traffic Statistics ======
====== Traffic class 0 ======
Packet latency average = 17.5015 (1 samples)
	minimum = 6 (1 samples)
	maximum = 703 (1 samples)
Network latency average = 13.7949 (1 samples)
	minimum = 6 (1 samples)
	maximum = 678 (1 samples)
Flit latency average = 13.1388 (1 samples)
	minimum = 6 (1 samples)
	maximum = 674 (1 samples)
Fragmentation average = 0.129704 (1 samples)
	minimum = 0 (1 samples)
	maximum = 551 (1 samples)
Injected packet rate average = 0.0353068 (1 samples)
	minimum = 0.0296686 (1 samples)
	maximum = 0.0408403 (1 samples)
Accepted packet rate average = 0.0353068 (1 samples)
	minimum = 0.0281908 (1 samples)
	maximum = 0.0420706 (1 samples)
Injected flit rate average = 0.101801 (1 samples)
	minimum = 0.0831513 (1 samples)
	maximum = 0.124981 (1 samples)
Accepted flit rate average = 0.101801 (1 samples)
	minimum = 0.0639968 (1 samples)
	maximum = 0.142616 (1 samples)
Injected packet size average = 2.88332 (1 samples)
Accepted packet size average = 2.88332 (1 samples)
Hops average = 1 (1 samples)
----------------------------END-of-Interconnect-DETAILS-------------------------


gpgpu_simulation_time = 0 days, 0 hrs, 3 min, 2 sec (182 sec)
gpgpu_simulation_rate = 344409 (inst/sec)
gpgpu_simulation_rate = 777 (cycle/sec)
GPGPU-Sim: synchronize waiting for inactive GPU simulation
GPGPU-Sim API: Stream Manager State
GPGPU-Sim: detected inactive GPU simulation thread

checksum=75ef40cb5b8e
Kernel Time: 181740.437500 
