

        *** GPGPU-Sim Simulator Version 3.2.2  [build 0] ***


GPGPU-Sim PTX: simulation mode 0 (can change with PTX_SIM_MODE_FUNC environment variable:
               1=functional simulation only, 0=detailed performance simulator)
GPGPU-Sim: Configuration options:

-network_mode                           1 # Interconnection network mode
-inter_config_file   config_fermi_islip.icnt # Interconnection network config file
-gpgpu_ptx_use_cuobjdump                    1 # Use cuobjdump to extract ptx and sass from binaries
-gpgpu_experimental_lib_support                    0 # Try to extract code from cuda libraries [Broken because of unknown cudaGetExportTable]
-gpgpu_ptx_convert_to_ptxplus                    0 # Convert SASS (native ISA) to ptxplus and run ptxplus
-gpgpu_ptx_force_max_capability                   20 # Force maximum compute capability
-gpgpu_ptx_inst_debug_to_file                    0 # Dump executed instructions' debug information to file
-gpgpu_ptx_inst_debug_file       inst_debug.txt # Executed instructions' debug output file
-gpgpu_ptx_inst_debug_thread_uid                    1 # Thread UID for executed instructions' debug output
-gpgpu_simd_model                       1 # 1 = post-dominator
-gpgpu_shader_core_pipeline              1536:32 # shader core pipeline config, i.e., {<nthread>:<warpsize>}
-gpgpu_tex_cache:l1  4:128:24,L:R:m:N:L,F:128:4,128:2 # per-shader L1 texture cache  (READ-ONLY) config  {<nsets>:<bsize>:<assoc>,<rep>:<wr>:<alloc>:<wr_alloc>,<mshr>:<N>:<merge>,<mq>:<rf>}
-gpgpu_const_cache:l1 64:64:2,L:R:f:N:L,A:2:32,4 # per-shader L1 constant memory cache  (READ-ONLY) config  {<nsets>:<bsize>:<assoc>,<rep>:<wr>:<alloc>:<wr_alloc>,<mshr>:<N>:<merge>,<mq>} 
-gpgpu_cache:il1     4:128:4,L:R:f:N:L,A:2:32,4 # shader L1 instruction cache config  {<nsets>:<bsize>:<assoc>,<rep>:<wr>:<alloc>:<wr_alloc>,<mshr>:<N>:<merge>,<mq>} 
-gpgpu_cache:dl1     32:128:4,L:L:m:N:H,A:32:8,8 # per-shader L1 data cache config  {<nsets>:<bsize>:<assoc>,<rep>:<wr>:<alloc>:<wr_alloc>,<mshr>:<N>:<merge>,<mq> | none}
-gpgpu_cache:dl1PrefL1                 none # per-shader L1 data cache config  {<nsets>:<bsize>:<assoc>,<rep>:<wr>:<alloc>:<wr_alloc>,<mshr>:<N>:<merge>,<mq> | none}
-gpgpu_cache:dl1PreShared                 none # per-shader L1 data cache config  {<nsets>:<bsize>:<assoc>,<rep>:<wr>:<alloc>:<wr_alloc>,<mshr>:<N>:<merge>,<mq> | none}
-gmem_skip_L1D                          0 # global memory access skip L1D cache (implements -Xptxas -dlcm=cg, default=no skip)
-gpgpu_perfect_mem                      0 # enable perfect memory mode (no cache miss)
-n_regfile_gating_group                    4 # group of lanes that should be read/written together)
-gpgpu_clock_gated_reg_file                    0 # enable clock gated reg file for power calculations
-gpgpu_clock_gated_lanes                    0 # enable clock gated lanes for power calculations
-gpgpu_shader_registers                32768 # Number of registers per shader core. Limits number of concurrent CTAs. (default 8192)
-gpgpu_shader_cta                       8 # Maximum number of concurrent CTAs in shader (default 8)
-gpgpu_num_cta_barriers                   16 # Maximum number of named barriers per CTA (default 16)
-gpgpu_n_clusters                      15 # number of processing clusters
-gpgpu_n_cores_per_cluster                    1 # number of simd cores per cluster
-gpgpu_n_cluster_ejection_buffer_size                    8 # number of packets in ejection buffer
-gpgpu_n_ldst_response_buffer_size                    2 # number of response packets in ld/st unit ejection buffer
-gpgpu_shmem_size                   16384 # Size of shared memory per shader core (default 16kB)
-gpgpu_shmem_size                   49152 # Size of shared memory per shader core (default 16kB)
-gpgpu_shmem_size_PrefL1                16384 # Size of shared memory per shader core (default 16kB)
-gpgpu_shmem_size_PrefShared                16384 # Size of shared memory per shader core (default 16kB)
-gpgpu_shmem_num_banks                   32 # Number of banks in the shared memory in each shader core (default 16)
-gpgpu_shmem_limited_broadcast                    0 # Limit shared memory to do one broadcast per cycle (default on)
-gpgpu_shmem_warp_parts                    1 # Number of portions a warp is divided into for shared memory bank conflict check 
-gpgpu_warpdistro_shader                   -1 # Specify which shader core to collect the warp size distribution from
-gpgpu_warp_issue_shader                    0 # Specify which shader core to collect the warp issue distribution from
-gpgpu_local_mem_map                    1 # Mapping from local memory space address to simulated GPU physical address space (default = enabled)
-gpgpu_num_reg_banks                   16 # Number of register banks (default = 8)
-gpgpu_reg_bank_use_warp_id                    0 # Use warp ID in mapping registers to banks (default = off)
-gpgpu_operand_collector_num_units_sp                    6 # number of collector units (default = 4)
-gpgpu_operand_collector_num_units_sfu                    8 # number of collector units (default = 4)
-gpgpu_operand_collector_num_units_mem                    2 # number of collector units (default = 2)
-gpgpu_operand_collector_num_units_gen                    0 # number of collector units (default = 0)
-gpgpu_operand_collector_num_in_ports_sp                    2 # number of collector unit in ports (default = 1)
-gpgpu_operand_collector_num_in_ports_sfu                    1 # number of collector unit in ports (default = 1)
-gpgpu_operand_collector_num_in_ports_mem                    1 # number of collector unit in ports (default = 1)
-gpgpu_operand_collector_num_in_ports_gen                    0 # number of collector unit in ports (default = 0)
-gpgpu_operand_collector_num_out_ports_sp                    2 # number of collector unit in ports (default = 1)
-gpgpu_operand_collector_num_out_ports_sfu                    1 # number of collector unit in ports (default = 1)
-gpgpu_operand_collector_num_out_ports_mem                    1 # number of collector unit in ports (default = 1)
-gpgpu_operand_collector_num_out_ports_gen                    0 # number of collector unit in ports (default = 0)
-gpgpu_coalesce_arch                   13 # Coalescing arch (default = 13, anything else is off for now)
-gpgpu_num_sched_per_core                    2 # Number of warp schedulers per core
-gpgpu_max_insn_issue_per_warp                    1 # Max number of instructions that can be issued per warp in one cycle by scheduler
-gpgpu_simt_core_sim_order                    1 # Select the simulation order of cores in a cluster (0=Fix, 1=Round-Robin)
-gpgpu_pipeline_widths        2,1,1,2,1,1,2 # Pipeline widths ID_OC_SP,ID_OC_SFU,ID_OC_MEM,OC_EX_SP,OC_EX_SFU,OC_EX_MEM,EX_WB
-gpgpu_num_sp_units                     2 # Number of SP units (default=1)
-gpgpu_num_sfu_units                    1 # Number of SF units (default=1)
-gpgpu_num_mem_units                    1 # Number if ldst units (default=1) WARNING: not hooked up to anything
-gpgpu_scheduler                      gto # Scheduler configuration: < lrr | gto | two_level_active > If two_level_active:<num_active_warps>:<inner_prioritization>:<outer_prioritization>For complete list of prioritization values see shader.h enum scheduler_prioritization_typeDefault: gto
-gpgpu_dram_scheduler                    1 # 0 = fifo, 1 = FR-FCFS (defaul)
-gpgpu_dram_partition_queues              8:8:8:8 # i2$:$2d:d2$:$2i
-l2_ideal                               0 # Use a ideal L2 cache that always hit
-gpgpu_cache:dl2     64:128:8,L:B:m:W:L,A:32:4,4:0,32 # unified banked L2 data cache config  {<nsets>:<bsize>:<assoc>,<rep>:<wr>:<alloc>:<wr_alloc>,<mshr>:<N>:<merge>,<mq>}
-gpgpu_cache:dl2_texture_only                    0 # L2 cache used for texture only
-gpgpu_n_mem                            6 # number of memory modules (e.g. memory controllers) in gpu
-gpgpu_n_sub_partition_per_mchannel                    2 # number of memory subpartition in each memory module
-gpgpu_n_mem_per_ctrlr                    2 # number of memory chips per memory controller
-gpgpu_memlatency_stat                   14 # track and display latency statistics 0x2 enables MC, 0x4 enables queue logs
-gpgpu_frfcfs_dram_sched_queue_size                   16 # 0 = unlimited (default); # entries per chip
-gpgpu_dram_return_queue_size                  116 # 0 = unlimited (default); # entries per chip
-gpgpu_dram_buswidth                    1 # default = 4 bytes (8 bytes per cycle at DDR)
-gpgpu_dram_burst_length                    8 # Burst length of each DRAM request (default = 4 data bus cycle)
-dram_data_command_freq_ratio                    4 # Frequency ratio between DRAM data bus and command bus (default = 2 times, i.e. DDR)
-gpgpu_dram_timing_opt nbk=16:CCD=2:RRD=6:RCD=12:RAS=28:RP=12:RC=40: CL=12:WL=4:CDLR=5:WR=12:nbkgrp=4:CCDL=3:RTPL=2 # DRAM timing parameters = {nbk:tCCD:tRRD:tRCD:tRAS:tRP:tRC:CL:WL:tCDLR:tWR:nbkgrp:tCCDL:tRTPL}
-rop_latency                          120 # ROP queue latency (default 85)
-dram_latency                         100 # DRAM latency (default 30)
-gpgpu_mem_addr_mapping dramid@8;00000000.00000000.00000000.00000000.0000RRRR.RRRRRRRR.BBBCCCCB.CCSSSSSS # mapping memory address to dram model {dramid@<start bit>;<memory address map>}
-gpgpu_mem_addr_test                    0 # run sweep test to check address mapping for aliased address
-gpgpu_mem_address_mask                    1 # 0 = old addressing mask, 1 = new addressing mask, 2 = new add. mask + flipped bank sel and chip sel bits
-gpuwattch_xml_file  gpuwattch_gtx480.xml # GPUWattch XML file
-power_simulation_enabled                    1 # Turn on power simulator (1=On, 0=Off)
-power_per_cycle_dump                    0 # Dump detailed power output each cycle
-power_trace_enabled                    0 # produce a file for the power trace (1=On, 0=Off)
-power_trace_zlevel                     6 # Compression level of the power trace output log (0=no comp, 9=highest)
-steady_power_levels_enabled                    0 # produce a file for the steady power levels (1=On, 0=Off)
-steady_state_definition                  8:4 # allowed deviation:number of samples
-gpgpu_max_cycle                        0 # terminates gpu simulation early (0 = no limit)
-gpgpu_max_insn                         0 # terminates gpu simulation early (0 = no limit)
-gpgpu_max_cta                          0 # terminates gpu simulation early (0 = no limit)
-gpgpu_runtime_stat                   500 # display runtime statistics such as dram utilization {<freq>:<flag>}
-liveness_message_freq                    1 # Minimum number of seconds between simulation liveness messages (0 = always print)
-gpgpu_flush_l1_cache                    0 # Flush L1 cache at the end of each kernel call
-gpgpu_flush_l2_cache                    0 # Flush L2 cache at the end of each kernel call
-gpgpu_deadlock_detect                    1 # Stop the simulation at deadlock (1=on (default), 0=off)
-gpgpu_ptx_instruction_classification                    0 # if enabled will classify ptx instruction types per kernel (Max 255 kernels now)
-gpgpu_ptx_sim_mode                     0 # Select between Performance (default) or Functional simulation (1)
-gpgpu_clock_domains 700.0:700.0:700.0:924.0 # Clock Domain Frequencies in MhZ {<Core Clock>:<ICNT Clock>:<L2 Clock>:<DRAM Clock>}
-gpgpu_max_concurrent_kernel                    8 # maximum kernels that can run concurrently on GPU
-gpgpu_cflog_interval                    0 # Interval between each snapshot in control flow logger
-visualizer_enabled                     0 # Turn on visualizer output (1=On, 0=Off)
-visualizer_outputfile                 NULL # Specifies the output log file for visualizer
-visualizer_zlevel                      6 # Compression level of the visualizer output log (0=no comp, 9=highest)
-trace_enabled                          0 # Turn on traces
-trace_components                    none # comma seperated list of traces to enable. Complete list found in trace_streams.tup. Default none
-trace_sampling_core                    0 # The core which is printed using CORE_DPRINTF. Default 0
-trace_sampling_memory_partition                   -1 # The memory partition which is printed using MEMPART_DPRINTF. Default -1 (i.e. all)
-enable_ptx_file_line_stats                    1 # Turn on PTX source line statistic profiling. (1 = On)
-ptx_line_stats_filename gpgpu_inst_stats.txt # Output file for PTX source line statistics.
-save_embedded_ptx                      0 # saves ptx files embedded in binary as <n>.ptx
-keep                                   0 # keep intermediate files created by GPGPU-Sim when interfacing with external programs
-gpgpu_ptx_save_converted_ptxplus                    0 # Saved converted ptxplus to a file
-ptx_opcode_latency_int         4,13,4,5,145 # Opcode latencies for integers <ADD,MAX,MUL,MAD,DIV>Default 1,1,19,25,145
-ptx_opcode_latency_fp          4,13,4,5,39 # Opcode latencies for single precision floating points <ADD,MAX,MUL,MAD,DIV>Default 1,1,1,1,30
-ptx_opcode_latency_dp         8,19,8,8,330 # Opcode latencies for double precision floating points <ADD,MAX,MUL,MAD,DIV>Default 8,8,8,8,335
-ptx_opcode_initiation_int            1,2,2,1,8 # Opcode initiation intervals for integers <ADD,MAX,MUL,MAD,DIV>Default 1,1,4,4,32
-ptx_opcode_initiation_fp            1,2,1,1,4 # Opcode initiation intervals for single precision floating points <ADD,MAX,MUL,MAD,DIV>Default 1,1,1,1,5
-ptx_opcode_initiation_dp         8,16,8,8,130 # Opcode initiation intervals for double precision floating points <ADD,MAX,MUL,MAD,DIV>Default 8,8,8,8,130
DRAM Timing Options:
nbk                                    16 # number of banks
CCD                                     2 # column to column delay
RRD                                     6 # minimal delay between activation of rows in different banks
RCD                                    12 # row to column delay
RAS                                    28 # time needed to activate row
RP                                     12 # time needed to precharge (deactivate) row
RC                                     40 # row cycle time
CDLR                                    5 # switching from write to read (changes tWTR)
WR                                     12 # last data-in to row precharge
CL                                     12 # CAS latency
WL                                      4 # Write latency
nbkgrp                                  4 # number of bank groups
CCDL                                    3 # column to column delay between accesses to different bank groups
RTPL                                    2 # read to precharge delay between accesses to different bank groups
Total number of memory sub partition = 12
addr_dec_mask[CHIP]  = 0000000000000000 	high:64 low:0
addr_dec_mask[BK]    = 000000000000e100 	high:16 low:8
addr_dec_mask[ROW]   = 000000000fff0000 	high:28 low:16
addr_dec_mask[COL]   = 0000000000001eff 	high:13 low:0
addr_dec_mask[BURST] = 000000000000003f 	high:6 low:0
sub_partition_id_mask = 0000000000000100
GPGPU-Sim uArch: clock freqs: 700000000.000000:700000000.000000:700000000.000000:924000000.000000
GPGPU-Sim uArch: clock periods: 0.00000000142857142857:0.00000000142857142857:0.00000000142857142857:0.00000000108225108225
*** Initializing Memory Statistics ***
GPGPU-Sim uArch: interconnect node map (shaderID+MemID to icntID)
GPGPU-Sim uArch: Memory nodes ID start from index: 15
GPGPU-Sim uArch:    0   1   2   3   4
GPGPU-Sim uArch:    5   6   7   8   9
GPGPU-Sim uArch:   10  11  12  13  14
GPGPU-Sim uArch:   15  16  17  18  19
GPGPU-Sim uArch:   20  21  22  23  24
GPGPU-Sim uArch:   25  26
GPGPU-Sim uArch: interconnect node reverse map (icntID to shaderID+MemID)
GPGPU-Sim uArch: Memory nodes start from ID: 15
GPGPU-Sim uArch:    0   1   2   3   4
GPGPU-Sim uArch:    5   6   7   8   9
GPGPU-Sim uArch:   10  11  12  13  14
GPGPU-Sim uArch:   15  16  17  18  19
GPGPU-Sim uArch:   20  21  22  23  24
GPGPU-Sim uArch:   25  26
42f7b457b4f8bc5f243a2d9180567621  /home/scratch/adwait/applications/benchmarks/CUDA/BlackScholes/gpgpu_ptx_sim__BlackScholes
GPGPU-Sim uArch: performance model initialization complete.
GPGPU-Sim PTX: __cudaRegisterFatBinary, fat_cubin_handle = 1, filename=BlackScholes.cu
self exe links to: /home/scratch/adwait/applications/benchmarks/CUDA/BlackScholes/gpgpu_ptx_sim__BlackScholes
Running md5sum using "md5sum /home/scratch/adwait/applications/benchmarks/CUDA/BlackScholes/gpgpu_ptx_sim__BlackScholes "
Running cuobjdump using "$CUDA_INSTALL_PATH/bin/cuobjdump -ptx -elf -sass /home/scratch/adwait/applications/benchmarks/CUDA/BlackScholes/gpgpu_ptx_sim__BlackScholes > _cuobjdump_complete_output_c3SAxl"
Parsing file _cuobjdump_complete_output_c3SAxl
######### cuobjdump parser ########
## Adding new section ELF
Adding arch: sm_20
Adding identifier: BlackScholes.cu
## Adding new section PTX
Adding ptx filename: _cuobjdump_1.ptx
Adding arch: sm_20
Adding identifier: BlackScholes.cu
Done parsing!!!
GPGPU-Sim PTX: __cudaRegisterFunction _Z15BlackScholesGPUPfS_S_S_S_ffi : hostFun 0x0x4050ed, fat_cubin_handle = 1
GPGPU-Sim PTX: instruction assembly for function '_Z15BlackScholesGPUPfS_S_S_S_ffi'...   done.
GPGPU-Sim PTX: finding reconvergence points for '_Z15BlackScholesGPUPfS_S_S_S_ffi'...
GPGPU-Sim PTX: Finding dominators for '_Z15BlackScholesGPUPfS_S_S_S_ffi'...
GPGPU-Sim PTX: Finding immediate dominators for '_Z15BlackScholesGPUPfS_S_S_S_ffi'...
GPGPU-Sim PTX: Finding postdominators for '_Z15BlackScholesGPUPfS_S_S_S_ffi'...
GPGPU-Sim PTX: Finding immediate postdominators for '_Z15BlackScholesGPUPfS_S_S_S_ffi'...
GPGPU-Sim PTX: pre-decoding instructions for '_Z15BlackScholesGPUPfS_S_S_S_ffi'...
GPGPU-Sim PTX: reconvergence points for _Z15BlackScholesGPUPfS_S_S_S_ffi...
GPGPU-Sim PTX:  1 (potential) branch divergence @  PC=0x040 (_1.ptx:76) @%p1 bra $Lt_0_2818;
GPGPU-Sim PTX:    immediate post dominator      @  PC=0x3f8 (_1.ptx:200) exit;
GPGPU-Sim PTX:  2 (potential) branch divergence @  PC=0x3f0 (_1.ptx:197) @%p4 bra $Lt_0_3330;
GPGPU-Sim PTX:    immediate post dominator      @  PC=0x3f8 (_1.ptx:200) exit;
GPGPU-Sim PTX: ... end of reconvergence points for _Z15BlackScholesGPUPfS_S_S_S_ffi
GPGPU-Sim PTX: ... done pre-decoding instructions for '_Z15BlackScholesGPUPfS_S_S_S_ffi'.
GPGPU-Sim PTX: finished parsing EMBEDDED .ptx file _1.ptx
Adding _cuobjdump_1.ptx with cubin handle 1
GPGPU-Sim PTX: extracting embedded .ptx to temporary file "_ptx_fk0HSs"
Running: cat _ptx_fk0HSs | sed 's/.version 1.5/.version 1.4/' | sed 's/, texmode_independent//' | sed 's/\(\.extern \.const\[1\] .b8 \w\+\)\[\]/\1\[1\]/' | sed 's/const\[.\]/const\[0\]/g' > _ptx2_AeVbeA
GPGPU-Sim PTX: generating ptxinfo using "$CUDA_INSTALL_PATH/bin/ptxas --gpu-name=sm_20 -v _ptx2_AeVbeA --output-file  /dev/null 2> _ptx_fk0HSsinfo"
GPGPU-Sim PTX: Kernel '_Z15BlackScholesGPUPfS_S_S_S_ffi' : regs=31, lmem=0, smem=0, cmem=128
GPGPU-Sim PTX: removing ptxinfo using "rm -f _ptx_fk0HSs _ptx2_AeVbeA _ptx_fk0HSsinfo"
GPGPU-Sim PTX: loading globals with explicit initializers... 
GPGPU-Sim PTX: finished loading globals (0 bytes total).
GPGPU-Sim PTX: loading constants with explicit initializers...  done.
Initializing data...
...allocating CPU memory for options.
...allocating GPU memory for options.
...generating input data in CPU mem.
...copying input data to GPU mem.
Data init done.
Executing Black-Scholes GPU kernel (1 iterations)...
GPGPU-Sim: synchronize waiting for inactive GPU simulation
GPGPU-Sim API: Stream Manager State
GPGPU-Sim: detected inactive GPU simulation thread

GPGPU-Sim PTX: cudaLaunch for 0x0x4050ed (mode=performance simulation) on stream 0
GPGPU-Sim PTX: pushing kernel '_Z15BlackScholesGPUPfS_S_S_S_ffi' to stream 0, gridDim= (480,1,1) blockDim = (128,1,1) 
kernel '_Z15BlackScholesGPUPfS_S_S_S_ffi' transfer to GPU hardware scheduler
GPGPU-Sim uArch: Shader 1 bind to kernel 1 '_Z15BlackScholesGPUPfS_S_S_S_ffi'
GPGPU-Sim uArch: CTA/core = 8, limited by: regs cta_limit
GPGPU-Sim uArch: core:  1, cta: 0 initialized @(1,0)
GPGPU-Sim uArch: Shader 2 bind to kernel 1 '_Z15BlackScholesGPUPfS_S_S_S_ffi'
GPGPU-Sim uArch: core:  2, cta: 0 initialized @(1,0)
GPGPU-Sim uArch: Shader 3 bind to kernel 1 '_Z15BlackScholesGPUPfS_S_S_S_ffi'
GPGPU-Sim uArch: core:  3, cta: 0 initialized @(1,0)
GPGPU-Sim uArch: Shader 4 bind to kernel 1 '_Z15BlackScholesGPUPfS_S_S_S_ffi'
GPGPU-Sim uArch: core:  4, cta: 0 initialized @(1,0)
GPGPU-Sim uArch: Shader 5 bind to kernel 1 '_Z15BlackScholesGPUPfS_S_S_S_ffi'
GPGPU-Sim uArch: core:  5, cta: 0 initialized @(1,0)
GPGPU-Sim uArch: Shader 6 bind to kernel 1 '_Z15BlackScholesGPUPfS_S_S_S_ffi'
GPGPU-Sim uArch: core:  6, cta: 0 initialized @(1,0)
GPGPU-Sim uArch: Shader 7 bind to kernel 1 '_Z15BlackScholesGPUPfS_S_S_S_ffi'
GPGPU-Sim uArch: core:  7, cta: 0 initialized @(1,0)
GPGPU-Sim uArch: Shader 8 bind to kernel 1 '_Z15BlackScholesGPUPfS_S_S_S_ffi'
GPGPU-Sim uArch: core:  8, cta: 0 initialized @(1,0)
GPGPU-Sim uArch: Shader 9 bind to kernel 1 '_Z15BlackScholesGPUPfS_S_S_S_ffi'
GPGPU-Sim uArch: core:  9, cta: 0 initialized @(1,0)
GPGPU-Sim uArch: Shader 10 bind to kernel 1 '_Z15BlackScholesGPUPfS_S_S_S_ffi'
GPGPU-Sim uArch: core: 10, cta: 0 initialized @(1,0)
GPGPU-Sim uArch: Shader 11 bind to kernel 1 '_Z15BlackScholesGPUPfS_S_S_S_ffi'
GPGPU-Sim uArch: core: 11, cta: 0 initialized @(1,0)
GPGPU-Sim uArch: Shader 12 bind to kernel 1 '_Z15BlackScholesGPUPfS_S_S_S_ffi'
GPGPU-Sim uArch: core: 12, cta: 0 initialized @(1,0)
GPGPU-Sim uArch: Shader 13 bind to kernel 1 '_Z15BlackScholesGPUPfS_S_S_S_ffi'
GPGPU-Sim uArch: core: 13, cta: 0 initialized @(1,0)
GPGPU-Sim uArch: Shader 14 bind to kernel 1 '_Z15BlackScholesGPUPfS_S_S_S_ffi'
GPGPU-Sim uArch: core: 14, cta: 0 initialized @(1,0)
GPGPU-Sim uArch: Shader 0 bind to kernel 1 '_Z15BlackScholesGPUPfS_S_S_S_ffi'
GPGPU-Sim uArch: core:  0, cta: 0 initialized @(1,0)
GPGPU-Sim uArch: core:  1, cta: 1 initialized @(2,0)
GPGPU-Sim uArch: core:  2, cta: 1 initialized @(2,0)
GPGPU-Sim uArch: core:  3, cta: 1 initialized @(2,0)
GPGPU-Sim uArch: core:  4, cta: 1 initialized @(2,0)
GPGPU-Sim uArch: core:  5, cta: 1 initialized @(2,0)
GPGPU-Sim uArch: core:  6, cta: 1 initialized @(2,0)
GPGPU-Sim uArch: core:  7, cta: 1 initialized @(2,0)
GPGPU-Sim uArch: core:  8, cta: 1 initialized @(2,0)
GPGPU-Sim uArch: core:  9, cta: 1 initialized @(2,0)
GPGPU-Sim uArch: core: 10, cta: 1 initialized @(2,0)
GPGPU-Sim uArch: core: 11, cta: 1 initialized @(2,0)
GPGPU-Sim uArch: core: 12, cta: 1 initialized @(2,0)
GPGPU-Sim uArch: core: 13, cta: 1 initialized @(2,0)
GPGPU-Sim uArch: core: 14, cta: 1 initialized @(2,0)
GPGPU-Sim uArch: core:  0, cta: 1 initialized @(2,0)
GPGPU-Sim uArch: core:  1, cta: 2 initialized @(3,0)
GPGPU-Sim uArch: core:  2, cta: 2 initialized @(3,0)
GPGPU-Sim uArch: core:  3, cta: 2 initialized @(3,0)
GPGPU-Sim uArch: core:  4, cta: 2 initialized @(3,0)
GPGPU-Sim uArch: core:  5, cta: 2 initialized @(3,0)
GPGPU-Sim uArch: core:  6, cta: 2 initialized @(3,0)
GPGPU-Sim uArch: core:  7, cta: 2 initialized @(3,0)
GPGPU-Sim uArch: core:  8, cta: 2 initialized @(3,0)
GPGPU-Sim uArch: core:  9, cta: 2 initialized @(3,0)
GPGPU-Sim uArch: core: 10, cta: 2 initialized @(3,0)
GPGPU-Sim uArch: core: 11, cta: 2 initialized @(3,0)
GPGPU-Sim uArch: core: 12, cta: 2 initialized @(3,0)
GPGPU-Sim uArch: core: 13, cta: 2 initialized @(3,0)
GPGPU-Sim uArch: core: 14, cta: 2 initialized @(3,0)
GPGPU-Sim uArch: core:  0, cta: 2 initialized @(3,0)
GPGPU-Sim uArch: core:  1, cta: 3 initialized @(4,0)
GPGPU-Sim uArch: core:  2, cta: 3 initialized @(4,0)
GPGPU-Sim uArch: core:  3, cta: 3 initialized @(4,0)
GPGPU-Sim uArch: core:  4, cta: 3 initialized @(4,0)
GPGPU-Sim uArch: core:  5, cta: 3 initialized @(4,0)
GPGPU-Sim uArch: core:  6, cta: 3 initialized @(4,0)
GPGPU-Sim uArch: core:  7, cta: 3 initialized @(4,0)
GPGPU-Sim uArch: core:  8, cta: 3 initialized @(4,0)
GPGPU-Sim uArch: core:  9, cta: 3 initialized @(4,0)
GPGPU-Sim uArch: core: 10, cta: 3 initialized @(4,0)
GPGPU-Sim uArch: core: 11, cta: 3 initialized @(4,0)
GPGPU-Sim uArch: core: 12, cta: 3 initialized @(4,0)
GPGPU-Sim uArch: core: 13, cta: 3 initialized @(4,0)
GPGPU-Sim uArch: core: 14, cta: 3 initialized @(4,0)
GPGPU-Sim uArch: core:  0, cta: 3 initialized @(4,0)
GPGPU-Sim uArch: core:  1, cta: 4 initialized @(5,0)
GPGPU-Sim uArch: core:  2, cta: 4 initialized @(5,0)
GPGPU-Sim uArch: core:  3, cta: 4 initialized @(5,0)
GPGPU-Sim uArch: core:  4, cta: 4 initialized @(5,0)
GPGPU-Sim uArch: core:  5, cta: 4 initialized @(5,0)
GPGPU-Sim uArch: core:  6, cta: 4 initialized @(5,0)
GPGPU-Sim uArch: core:  7, cta: 4 initialized @(5,0)
GPGPU-Sim uArch: core:  8, cta: 4 initialized @(5,0)
GPGPU-Sim uArch: core:  9, cta: 4 initialized @(5,0)
GPGPU-Sim uArch: core: 10, cta: 4 initialized @(5,0)
GPGPU-Sim uArch: core: 11, cta: 4 initialized @(5,0)
GPGPU-Sim uArch: core: 12, cta: 4 initialized @(5,0)
GPGPU-Sim uArch: core: 13, cta: 4 initialized @(5,0)
GPGPU-Sim uArch: core: 14, cta: 4 initialized @(5,0)
GPGPU-Sim uArch: core:  0, cta: 4 initialized @(5,0)
GPGPU-Sim uArch: core:  1, cta: 5 initialized @(6,0)
GPGPU-Sim uArch: core:  2, cta: 5 initialized @(6,0)
GPGPU-Sim uArch: core:  3, cta: 5 initialized @(6,0)
GPGPU-Sim uArch: core:  4, cta: 5 initialized @(6,0)
GPGPU-Sim uArch: core:  5, cta: 5 initialized @(6,0)
GPGPU-Sim uArch: core:  6, cta: 5 initialized @(6,0)
GPGPU-Sim uArch: core:  7, cta: 5 initialized @(6,0)
GPGPU-Sim uArch: core:  8, cta: 5 initialized @(6,0)
GPGPU-Sim uArch: core:  9, cta: 5 initialized @(6,0)
GPGPU-Sim uArch: core: 10, cta: 5 initialized @(6,0)
GPGPU-Sim uArch: core: 11, cta: 5 initialized @(6,0)
GPGPU-Sim uArch: core: 12, cta: 5 initialized @(6,0)
GPGPU-Sim uArch: core: 13, cta: 5 initialized @(6,0)
GPGPU-Sim uArch: core: 14, cta: 5 initialized @(6,0)
GPGPU-Sim uArch: core:  0, cta: 5 initialized @(6,0)
GPGPU-Sim uArch: core:  1, cta: 6 initialized @(7,0)
GPGPU-Sim uArch: core:  2, cta: 6 initialized @(7,0)
GPGPU-Sim uArch: core:  3, cta: 6 initialized @(7,0)
GPGPU-Sim uArch: core:  4, cta: 6 initialized @(7,0)
GPGPU-Sim uArch: core:  5, cta: 6 initialized @(7,0)
GPGPU-Sim uArch: core:  6, cta: 6 initialized @(7,0)
GPGPU-Sim uArch: core:  7, cta: 6 initialized @(7,0)
GPGPU-Sim uArch: core:  8, cta: 6 initialized @(7,0)
GPGPU-Sim uArch: core:  9, cta: 6 initialized @(7,0)
GPGPU-Sim uArch: core: 10, cta: 6 initialized @(7,0)
GPGPU-Sim uArch: core: 11, cta: 6 initialized @(7,0)
GPGPU-Sim uArch: core: 12, cta: 6 initialized @(7,0)
GPGPU-Sim uArch: core: 13, cta: 6 initialized @(7,0)
GPGPU-Sim uArch: core: 14, cta: 6 initialized @(7,0)
GPGPU-Sim uArch: core:  0, cta: 6 initialized @(7,0)
GPGPU-Sim uArch: core:  1, cta: 7 initialized @(8,0)
GPGPU-Sim uArch: core:  2, cta: 7 initialized @(8,0)
GPGPU-Sim uArch: core:  3, cta: 7 initialized @(8,0)
GPGPU-Sim uArch: core:  4, cta: 7 initialized @(8,0)
GPGPU-Sim uArch: core:  5, cta: 7 initialized @(8,0)
GPGPU-Sim uArch: core:  6, cta: 7 initialized @(8,0)
GPGPU-Sim uArch: core:  7, cta: 7 initialized @(8,0)
GPGPU-Sim uArch: core:  8, cta: 7 initialized @(8,0)
GPGPU-Sim uArch: core:  9, cta: 7 initialized @(8,0)
GPGPU-Sim uArch: core: 10, cta: 7 initialized @(8,0)
GPGPU-Sim uArch: core: 11, cta: 7 initialized @(8,0)
GPGPU-Sim uArch: core: 12, cta: 7 initialized @(8,0)
GPGPU-Sim uArch: core: 13, cta: 7 initialized @(8,0)
GPGPU-Sim uArch: core: 14, cta: 7 initialized @(8,0)
GPGPU-Sim uArch: core:  0, cta: 7 initialized @(8,0)
GPGPU-Sim PTX: 100000 instructions simulated : ctaid=(83,0,0) tid=(127,0,0)
GPGPU-Sim uArch: cycles simulated: 500  inst.: 92000 (ipc=184.0) sim_rate=92000 (inst/sec) elapsed = 0:0:00:01 / Wed May  1 12:43:20 2019
GPGPU-Sim PTX: 200000 instructions simulated : ctaid=(110,0,0) tid=(31,0,0)
GPGPU-Sim PTX: 300000 instructions simulated : ctaid=(115,0,0) tid=(63,0,0)
GPGPU-Sim PTX: 400000 instructions simulated : ctaid=(50,0,0) tid=(63,0,0)
GPGPU-Sim uArch: cycles simulated: 1500  inst.: 425536 (ipc=283.7) sim_rate=212768 (inst/sec) elapsed = 0:0:00:02 / Wed May  1 12:43:21 2019
GPGPU-Sim PTX: 500000 instructions simulated : ctaid=(55,0,0) tid=(95,0,0)
GPGPU-Sim uArch: cycles simulated: 3500  inst.: 514688 (ipc=147.1) sim_rate=171562 (inst/sec) elapsed = 0:0:00:03 / Wed May  1 12:43:22 2019
GPGPU-Sim PTX: 600000 instructions simulated : ctaid=(16,0,0) tid=(63,0,0)
GPGPU-Sim PTX: 700000 instructions simulated : ctaid=(9,0,0) tid=(63,0,0)
GPGPU-Sim PTX: 800000 instructions simulated : ctaid=(104,0,0) tid=(31,0,0)
GPGPU-Sim PTX: 900000 instructions simulated : ctaid=(23,0,0) tid=(63,0,0)
GPGPU-Sim PTX: 1000000 instructions simulated : ctaid=(3,0,0) tid=(95,0,0)
GPGPU-Sim uArch: cycles simulated: 5000  inst.: 1012480 (ipc=202.5) sim_rate=253120 (inst/sec) elapsed = 0:0:00:04 / Wed May  1 12:43:23 2019
GPGPU-Sim PTX: 1100000 instructions simulated : ctaid=(62,0,0) tid=(31,0,0)
GPGPU-Sim PTX: 1200000 instructions simulated : ctaid=(6,0,0) tid=(95,0,0)
GPGPU-Sim PTX: 1300000 instructions simulated : ctaid=(92,0,0) tid=(127,0,0)
GPGPU-Sim PTX: 1400000 instructions simulated : ctaid=(99,0,0) tid=(95,0,0)
GPGPU-Sim PTX: 1500000 instructions simulated : ctaid=(38,0,0) tid=(31,0,0)
GPGPU-Sim PTX: 1600000 instructions simulated : ctaid=(11,0,0) tid=(63,0,0)
GPGPU-Sim PTX: 1700000 instructions simulated : ctaid=(80,0,0) tid=(63,0,0)
GPGPU-Sim uArch: cycles simulated: 6000  inst.: 1704480 (ipc=284.1) sim_rate=340896 (inst/sec) elapsed = 0:0:00:05 / Wed May  1 12:43:24 2019
GPGPU-Sim PTX: 1800000 instructions simulated : ctaid=(85,0,0) tid=(63,0,0)
GPGPU-Sim uArch: cycles simulated: 8000  inst.: 1828736 (ipc=228.6) sim_rate=304789 (inst/sec) elapsed = 0:0:00:06 / Wed May  1 12:43:25 2019
GPGPU-Sim PTX: 1900000 instructions simulated : ctaid=(0,0,0) tid=(63,0,0)
GPGPU-Sim PTX: 2000000 instructions simulated : ctaid=(113,0,0) tid=(95,0,0)
GPGPU-Sim PTX: 2100000 instructions simulated : ctaid=(7,0,0) tid=(63,0,0)
GPGPU-Sim uArch: cycles simulated: 10000  inst.: 2137568 (ipc=213.8) sim_rate=305366 (inst/sec) elapsed = 0:0:00:07 / Wed May  1 12:43:26 2019
GPGPU-Sim PTX: 2200000 instructions simulated : ctaid=(8,0,0) tid=(31,0,0)
GPGPU-Sim PTX: 2300000 instructions simulated : ctaid=(9,0,0) tid=(63,0,0)
GPGPU-Sim PTX: 2400000 instructions simulated : ctaid=(37,0,0) tid=(31,0,0)
GPGPU-Sim PTX: 2500000 instructions simulated : ctaid=(78,0,0) tid=(31,0,0)
GPGPU-Sim uArch: cycles simulated: 11500  inst.: 2519968 (ipc=219.1) sim_rate=314996 (inst/sec) elapsed = 0:0:00:08 / Wed May  1 12:43:27 2019
GPGPU-Sim PTX: 2600000 instructions simulated : ctaid=(67,0,0) tid=(31,0,0)
GPGPU-Sim PTX: 2700000 instructions simulated : ctaid=(104,0,0) tid=(95,0,0)
GPGPU-Sim PTX: 2800000 instructions simulated : ctaid=(103,0,0) tid=(95,0,0)
GPGPU-Sim uArch: cycles simulated: 13000  inst.: 2801824 (ipc=215.5) sim_rate=311313 (inst/sec) elapsed = 0:0:00:09 / Wed May  1 12:43:28 2019
GPGPU-Sim PTX: 2900000 instructions simulated : ctaid=(12,0,0) tid=(31,0,0)
GPGPU-Sim PTX: 3000000 instructions simulated : ctaid=(30,0,0) tid=(95,0,0)
GPGPU-Sim PTX: 3100000 instructions simulated : ctaid=(59,0,0) tid=(31,0,0)
GPGPU-Sim uArch: cycles simulated: 15000  inst.: 3105728 (ipc=207.0) sim_rate=310572 (inst/sec) elapsed = 0:0:00:10 / Wed May  1 12:43:29 2019
GPGPU-Sim PTX: 3200000 instructions simulated : ctaid=(71,0,0) tid=(95,0,0)
GPGPU-Sim PTX: 3300000 instructions simulated : ctaid=(37,0,0) tid=(31,0,0)
GPGPU-Sim uArch: cycles simulated: 16500  inst.: 3353088 (ipc=203.2) sim_rate=304826 (inst/sec) elapsed = 0:0:00:11 / Wed May  1 12:43:30 2019
GPGPU-Sim PTX: 3400000 instructions simulated : ctaid=(16,0,0) tid=(63,0,0)
GPGPU-Sim PTX: 3500000 instructions simulated : ctaid=(53,0,0) tid=(31,0,0)
GPGPU-Sim PTX: 3600000 instructions simulated : ctaid=(35,0,0) tid=(31,0,0)
GPGPU-Sim PTX: 3700000 instructions simulated : ctaid=(42,0,0) tid=(31,0,0)
GPGPU-Sim uArch: cycles simulated: 18500  inst.: 3685920 (ipc=199.2) sim_rate=307160 (inst/sec) elapsed = 0:0:00:12 / Wed May  1 12:43:31 2019
GPGPU-Sim PTX: 3800000 instructions simulated : ctaid=(33,0,0) tid=(127,0,0)
GPGPU-Sim PTX: 3900000 instructions simulated : ctaid=(2,0,0) tid=(127,0,0)
GPGPU-Sim uArch: cycles simulated: 20000  inst.: 3964160 (ipc=198.2) sim_rate=304935 (inst/sec) elapsed = 0:0:00:13 / Wed May  1 12:43:32 2019
GPGPU-Sim PTX: 4000000 instructions simulated : ctaid=(59,0,0) tid=(95,0,0)
GPGPU-Sim PTX: 4100000 instructions simulated : ctaid=(23,0,0) tid=(63,0,0)
GPGPU-Sim PTX: 4200000 instructions simulated : ctaid=(57,0,0) tid=(31,0,0)
GPGPU-Sim PTX: 4300000 instructions simulated : ctaid=(52,0,0) tid=(31,0,0)
GPGPU-Sim uArch: cycles simulated: 22000  inst.: 4355008 (ipc=198.0) sim_rate=311072 (inst/sec) elapsed = 0:0:00:14 / Wed May  1 12:43:33 2019
GPGPU-Sim PTX: 4400000 instructions simulated : ctaid=(47,0,0) tid=(31,0,0)
GPGPU-Sim PTX: 4500000 instructions simulated : ctaid=(26,0,0) tid=(127,0,0)
GPGPU-Sim PTX: 4600000 instructions simulated : ctaid=(41,0,0) tid=(127,0,0)
GPGPU-Sim uArch: cycles simulated: 23500  inst.: 4660512 (ipc=198.3) sim_rate=310700 (inst/sec) elapsed = 0:0:00:15 / Wed May  1 12:43:34 2019
GPGPU-Sim PTX: 4700000 instructions simulated : ctaid=(26,0,0) tid=(63,0,0)
GPGPU-Sim PTX: 4800000 instructions simulated : ctaid=(41,0,0) tid=(63,0,0)
GPGPU-Sim PTX: 4900000 instructions simulated : ctaid=(59,0,0) tid=(31,0,0)
GPGPU-Sim uArch: cycles simulated: 25000  inst.: 4898528 (ipc=195.9) sim_rate=306158 (inst/sec) elapsed = 0:0:00:16 / Wed May  1 12:43:35 2019
GPGPU-Sim PTX: 5000000 instructions simulated : ctaid=(21,0,0) tid=(31,0,0)
GPGPU-Sim PTX: 5100000 instructions simulated : ctaid=(18,0,0) tid=(95,0,0)
GPGPU-Sim PTX: 5200000 instructions simulated : ctaid=(62,0,0) tid=(63,0,0)
GPGPU-Sim uArch: cycles simulated: 27000  inst.: 5262240 (ipc=194.9) sim_rate=309543 (inst/sec) elapsed = 0:0:00:17 / Wed May  1 12:43:36 2019
GPGPU-Sim PTX: 5300000 instructions simulated : ctaid=(4,0,0) tid=(127,0,0)
GPGPU-Sim PTX: 5400000 instructions simulated : ctaid=(61,0,0) tid=(31,0,0)
GPGPU-Sim PTX: 5500000 instructions simulated : ctaid=(30,0,0) tid=(127,0,0)
GPGPU-Sim uArch: cycles simulated: 28500  inst.: 5536224 (ipc=194.3) sim_rate=307568 (inst/sec) elapsed = 0:0:00:18 / Wed May  1 12:43:37 2019
GPGPU-Sim PTX: 5600000 instructions simulated : ctaid=(95,0,0) tid=(95,0,0)
GPGPU-Sim PTX: 5700000 instructions simulated : ctaid=(13,0,0) tid=(127,0,0)
GPGPU-Sim PTX: 5800000 instructions simulated : ctaid=(27,0,0) tid=(127,0,0)
GPGPU-Sim PTX: 5900000 instructions simulated : ctaid=(5,0,0) tid=(63,0,0)
GPGPU-Sim uArch: cycles simulated: 30500  inst.: 5885056 (ipc=193.0) sim_rate=309739 (inst/sec) elapsed = 0:0:00:19 / Wed May  1 12:43:38 2019
GPGPU-Sim PTX: 6000000 instructions simulated : ctaid=(84,0,0) tid=(31,0,0)
GPGPU-Sim PTX: 6100000 instructions simulated : ctaid=(22,0,0) tid=(31,0,0)
GPGPU-Sim uArch: cycles simulated: 32000  inst.: 6159328 (ipc=192.5) sim_rate=307966 (inst/sec) elapsed = 0:0:00:20 / Wed May  1 12:43:39 2019
GPGPU-Sim PTX: 6200000 instructions simulated : ctaid=(17,0,0) tid=(63,0,0)
GPGPU-Sim PTX: 6300000 instructions simulated : ctaid=(35,0,0) tid=(63,0,0)
GPGPU-Sim PTX: 6400000 instructions simulated : ctaid=(40,0,0) tid=(127,0,0)
GPGPU-Sim PTX: 6500000 instructions simulated : ctaid=(59,0,0) tid=(63,0,0)
GPGPU-Sim uArch: cycles simulated: 34000  inst.: 6551776 (ipc=192.7) sim_rate=311989 (inst/sec) elapsed = 0:0:00:21 / Wed May  1 12:43:40 2019
GPGPU-Sim PTX: 6600000 instructions simulated : ctaid=(89,0,0) tid=(31,0,0)
GPGPU-Sim PTX: 6700000 instructions simulated : ctaid=(41,0,0) tid=(95,0,0)
GPGPU-Sim PTX: 6800000 instructions simulated : ctaid=(34,0,0) tid=(127,0,0)
GPGPU-Sim uArch: cycles simulated: 35500  inst.: 6834208 (ipc=192.5) sim_rate=310645 (inst/sec) elapsed = 0:0:00:22 / Wed May  1 12:43:41 2019
GPGPU-Sim PTX: 6900000 instructions simulated : ctaid=(53,0,0) tid=(31,0,0)
GPGPU-Sim PTX: 7000000 instructions simulated : ctaid=(55,0,0) tid=(127,0,0)
GPGPU-Sim PTX: 7100000 instructions simulated : ctaid=(10,0,0) tid=(63,0,0)
GPGPU-Sim uArch: cycles simulated: 37000  inst.: 7103040 (ipc=192.0) sim_rate=308827 (inst/sec) elapsed = 0:0:00:23 / Wed May  1 12:43:42 2019
GPGPU-Sim PTX: 7200000 instructions simulated : ctaid=(89,0,0) tid=(95,0,0)
GPGPU-Sim PTX: 7300000 instructions simulated : ctaid=(11,0,0) tid=(63,0,0)
GPGPU-Sim PTX: 7400000 instructions simulated : ctaid=(8,0,0) tid=(95,0,0)
GPGPU-Sim PTX: 7500000 instructions simulated : ctaid=(40,0,0) tid=(95,0,0)
GPGPU-Sim uArch: cycles simulated: 39000  inst.: 7479232 (ipc=191.8) sim_rate=311634 (inst/sec) elapsed = 0:0:00:24 / Wed May  1 12:43:43 2019
GPGPU-Sim PTX: 7600000 instructions simulated : ctaid=(43,0,0) tid=(95,0,0)
GPGPU-Sim PTX: 7700000 instructions simulated : ctaid=(50,0,0) tid=(95,0,0)
GPGPU-Sim uArch: cycles simulated: 40500  inst.: 7755456 (ipc=191.5) sim_rate=310218 (inst/sec) elapsed = 0:0:00:25 / Wed May  1 12:43:44 2019
GPGPU-Sim PTX: 7800000 instructions simulated : ctaid=(47,0,0) tid=(31,0,0)
GPGPU-Sim PTX: 7900000 instructions simulated : ctaid=(0,0,0) tid=(63,0,0)
GPGPU-Sim PTX: 8000000 instructions simulated : ctaid=(51,0,0) tid=(95,0,0)
GPGPU-Sim uArch: cycles simulated: 42000  inst.: 8041696 (ipc=191.5) sim_rate=309296 (inst/sec) elapsed = 0:0:00:26 / Wed May  1 12:43:45 2019
GPGPU-Sim PTX: 8100000 instructions simulated : ctaid=(17,0,0) tid=(31,0,0)
GPGPU-Sim PTX: 8200000 instructions simulated : ctaid=(3,0,0) tid=(127,0,0)
GPGPU-Sim PTX: 8300000 instructions simulated : ctaid=(25,0,0) tid=(95,0,0)
GPGPU-Sim PTX: 8400000 instructions simulated : ctaid=(0,0,0) tid=(31,0,0)
GPGPU-Sim uArch: cycles simulated: 44000  inst.: 8402688 (ipc=191.0) sim_rate=311210 (inst/sec) elapsed = 0:0:00:27 / Wed May  1 12:43:46 2019
GPGPU-Sim PTX: 8500000 instructions simulated : ctaid=(31,0,0) tid=(127,0,0)
GPGPU-Sim PTX: 8600000 instructions simulated : ctaid=(76,0,0) tid=(31,0,0)
GPGPU-Sim PTX: 8700000 instructions simulated : ctaid=(32,0,0) tid=(63,0,0)
GPGPU-Sim uArch: cycles simulated: 45500  inst.: 8691648 (ipc=191.0) sim_rate=310416 (inst/sec) elapsed = 0:0:00:28 / Wed May  1 12:43:47 2019
GPGPU-Sim PTX: 8800000 instructions simulated : ctaid=(10,0,0) tid=(127,0,0)
GPGPU-Sim PTX: 8900000 instructions simulated : ctaid=(41,0,0) tid=(95,0,0)
GPGPU-Sim PTX: 9000000 instructions simulated : ctaid=(49,0,0) tid=(63,0,0)
GPGPU-Sim PTX: 9100000 instructions simulated : ctaid=(45,0,0) tid=(63,0,0)
GPGPU-Sim uArch: cycles simulated: 47500  inst.: 9089056 (ipc=191.3) sim_rate=313415 (inst/sec) elapsed = 0:0:00:29 / Wed May  1 12:43:48 2019
GPGPU-Sim PTX: 9200000 instructions simulated : ctaid=(25,0,0) tid=(63,0,0)
GPGPU-Sim PTX: 9300000 instructions simulated : ctaid=(23,0,0) tid=(31,0,0)
GPGPU-Sim uArch: cycles simulated: 49000  inst.: 9350176 (ipc=190.8) sim_rate=311672 (inst/sec) elapsed = 0:0:00:30 / Wed May  1 12:43:49 2019
GPGPU-Sim PTX: 9400000 instructions simulated : ctaid=(69,0,0) tid=(95,0,0)
GPGPU-Sim PTX: 9500000 instructions simulated : ctaid=(39,0,0) tid=(127,0,0)
GPGPU-Sim PTX: 9600000 instructions simulated : ctaid=(37,0,0) tid=(95,0,0)
GPGPU-Sim PTX: 9700000 instructions simulated : ctaid=(38,0,0) tid=(31,0,0)
GPGPU-Sim uArch: cycles simulated: 51000  inst.: 9705696 (ipc=190.3) sim_rate=313086 (inst/sec) elapsed = 0:0:00:31 / Wed May  1 12:43:50 2019
GPGPU-Sim PTX: 9800000 instructions simulated : ctaid=(10,0,0) tid=(95,0,0)
GPGPU-Sim PTX: 9900000 instructions simulated : ctaid=(29,0,0) tid=(95,0,0)
GPGPU-Sim PTX: 10000000 instructions simulated : ctaid=(56,0,0) tid=(31,0,0)
GPGPU-Sim uArch: cycles simulated: 52500  inst.: 10012544 (ipc=190.7) sim_rate=312892 (inst/sec) elapsed = 0:0:00:32 / Wed May  1 12:43:51 2019
GPGPU-Sim PTX: 10100000 instructions simulated : ctaid=(17,0,0) tid=(31,0,0)
GPGPU-Sim PTX: 10200000 instructions simulated : ctaid=(39,0,0) tid=(63,0,0)
GPGPU-Sim PTX: 10300000 instructions simulated : ctaid=(20,0,0) tid=(127,0,0)
GPGPU-Sim uArch: cycles simulated: 54000  inst.: 10318688 (ipc=191.1) sim_rate=312687 (inst/sec) elapsed = 0:0:00:33 / Wed May  1 12:43:52 2019
GPGPU-Sim PTX: 10400000 instructions simulated : ctaid=(19,0,0) tid=(63,0,0)
GPGPU-Sim PTX: 10500000 instructions simulated : ctaid=(28,0,0) tid=(95,0,0)
GPGPU-Sim PTX: 10600000 instructions simulated : ctaid=(15,0,0) tid=(31,0,0)
GPGPU-Sim PTX: 10700000 instructions simulated : ctaid=(77,0,0) tid=(95,0,0)
GPGPU-Sim uArch: cycles simulated: 56000  inst.: 10717856 (ipc=191.4) sim_rate=315231 (inst/sec) elapsed = 0:0:00:34 / Wed May  1 12:43:53 2019
GPGPU-Sim PTX: 10800000 instructions simulated : ctaid=(38,0,0) tid=(95,0,0)
GPGPU-Sim PTX: 10900000 instructions simulated : ctaid=(44,0,0) tid=(31,0,0)
GPGPU-Sim PTX: 11000000 instructions simulated : ctaid=(21,0,0) tid=(127,0,0)
GPGPU-Sim uArch: cycles simulated: 57500  inst.: 10993344 (ipc=191.2) sim_rate=314095 (inst/sec) elapsed = 0:0:00:35 / Wed May  1 12:43:54 2019
GPGPU-Sim PTX: 11100000 instructions simulated : ctaid=(37,0,0) tid=(63,0,0)
GPGPU-Sim PTX: 11200000 instructions simulated : ctaid=(74,0,0) tid=(95,0,0)
GPGPU-Sim PTX: 11300000 instructions simulated : ctaid=(18,0,0) tid=(95,0,0)
GPGPU-Sim uArch: cycles simulated: 59500  inst.: 11326752 (ipc=190.4) sim_rate=314632 (inst/sec) elapsed = 0:0:00:36 / Wed May  1 12:43:55 2019
GPGPU-Sim PTX: 11400000 instructions simulated : ctaid=(24,0,0) tid=(31,0,0)
GPGPU-Sim PTX: 11500000 instructions simulated : ctaid=(39,0,0) tid=(31,0,0)
GPGPU-Sim PTX: 11600000 instructions simulated : ctaid=(7,0,0) tid=(95,0,0)
GPGPU-Sim uArch: cycles simulated: 61000  inst.: 11629120 (ipc=190.6) sim_rate=314300 (inst/sec) elapsed = 0:0:00:37 / Wed May  1 12:43:56 2019
GPGPU-Sim PTX: 11700000 instructions simulated : ctaid=(114,0,0) tid=(31,0,0)
GPGPU-Sim PTX: 11800000 instructions simulated : ctaid=(9,0,0) tid=(31,0,0)
GPGPU-Sim PTX: 11900000 instructions simulated : ctaid=(43,0,0) tid=(31,0,0)
GPGPU-Sim PTX: 12000000 instructions simulated : ctaid=(79,0,0) tid=(95,0,0)
GPGPU-Sim uArch: cycles simulated: 63000  inst.: 12007904 (ipc=190.6) sim_rate=315997 (inst/sec) elapsed = 0:0:00:38 / Wed May  1 12:43:57 2019
GPGPU-Sim PTX: 12100000 instructions simulated : ctaid=(68,0,0) tid=(31,0,0)
GPGPU-Sim PTX: 12200000 instructions simulated : ctaid=(39,0,0) tid=(127,0,0)
GPGPU-Sim PTX: 12300000 instructions simulated : ctaid=(52,0,0) tid=(95,0,0)
GPGPU-Sim uArch: cycles simulated: 64500  inst.: 12302368 (ipc=190.7) sim_rate=315445 (inst/sec) elapsed = 0:0:00:39 / Wed May  1 12:43:58 2019
GPGPU-Sim PTX: 12400000 instructions simulated : ctaid=(15,0,0) tid=(31,0,0)
GPGPU-Sim PTX: 12500000 instructions simulated : ctaid=(28,0,0) tid=(63,0,0)
GPGPU-Sim PTX: 12600000 instructions simulated : ctaid=(7,0,0) tid=(31,0,0)
GPGPU-Sim uArch: cycles simulated: 66500  inst.: 12653952 (ipc=190.3) sim_rate=316348 (inst/sec) elapsed = 0:0:00:40 / Wed May  1 12:43:59 2019
GPGPU-Sim PTX: 12700000 instructions simulated : ctaid=(16,0,0) tid=(63,0,0)
GPGPU-Sim PTX: 12800000 instructions simulated : ctaid=(46,0,0) tid=(31,0,0)
GPGPU-Sim PTX: 12900000 instructions simulated : ctaid=(23,0,0) tid=(63,0,0)
GPGPU-Sim uArch: cycles simulated: 68000  inst.: 12914464 (ipc=189.9) sim_rate=314986 (inst/sec) elapsed = 0:0:00:41 / Wed May  1 12:44:00 2019
GPGPU-Sim PTX: 13000000 instructions simulated : ctaid=(30,0,0) tid=(127,0,0)
GPGPU-Sim PTX: 13100000 instructions simulated : ctaid=(23,0,0) tid=(31,0,0)
GPGPU-Sim PTX: 13200000 instructions simulated : ctaid=(2,0,0) tid=(95,0,0)
GPGPU-Sim PTX: 13300000 instructions simulated : ctaid=(4,0,0) tid=(127,0,0)
GPGPU-Sim uArch: cycles simulated: 70000  inst.: 13271040 (ipc=189.6) sim_rate=315977 (inst/sec) elapsed = 0:0:00:42 / Wed May  1 12:44:01 2019
GPGPU-Sim PTX: 13400000 instructions simulated : ctaid=(97,0,0) tid=(31,0,0)
GPGPU-Sim PTX: 13500000 instructions simulated : ctaid=(2,0,0) tid=(63,0,0)
GPGPU-Sim uArch: cycles simulated: 71500  inst.: 13541504 (ipc=189.4) sim_rate=314918 (inst/sec) elapsed = 0:0:00:43 / Wed May  1 12:44:02 2019
GPGPU-Sim PTX: 13600000 instructions simulated : ctaid=(33,0,0) tid=(95,0,0)
GPGPU-Sim PTX: 13700000 instructions simulated : ctaid=(76,0,0) tid=(31,0,0)
GPGPU-Sim PTX: 13800000 instructions simulated : ctaid=(5,0,0) tid=(127,0,0)
GPGPU-Sim uArch: cycles simulated: 73000  inst.: 13851680 (ipc=189.7) sim_rate=314810 (inst/sec) elapsed = 0:0:00:44 / Wed May  1 12:44:03 2019
GPGPU-Sim PTX: 13900000 instructions simulated : ctaid=(53,0,0) tid=(95,0,0)
GPGPU-Sim PTX: 14000000 instructions simulated : ctaid=(44,0,0) tid=(95,0,0)
GPGPU-Sim PTX: 14100000 instructions simulated : ctaid=(72,0,0) tid=(31,0,0)
GPGPU-Sim PTX: 14200000 instructions simulated : ctaid=(25,0,0) tid=(31,0,0)
GPGPU-Sim uArch: cycles simulated: 75000  inst.: 14246272 (ipc=190.0) sim_rate=316583 (inst/sec) elapsed = 0:0:00:45 / Wed May  1 12:44:04 2019
GPGPU-Sim PTX: 14300000 instructions simulated : ctaid=(8,0,0) tid=(63,0,0)
GPGPU-Sim PTX: 14400000 instructions simulated : ctaid=(4,0,0) tid=(31,0,0)
GPGPU-Sim PTX: 14500000 instructions simulated : ctaid=(14,0,0) tid=(95,0,0)
GPGPU-Sim uArch: cycles simulated: 76500  inst.: 14513664 (ipc=189.7) sim_rate=315514 (inst/sec) elapsed = 0:0:00:46 / Wed May  1 12:44:05 2019
GPGPU-Sim PTX: 14600000 instructions simulated : ctaid=(20,0,0) tid=(127,0,0)
GPGPU-Sim PTX: 14700000 instructions simulated : ctaid=(18,0,0) tid=(95,0,0)
GPGPU-Sim PTX: 14800000 instructions simulated : ctaid=(1,0,0) tid=(31,0,0)
GPGPU-Sim uArch: cycles simulated: 78000  inst.: 14827904 (ipc=190.1) sim_rate=315487 (inst/sec) elapsed = 0:0:00:47 / Wed May  1 12:44:06 2019
GPGPU-Sim PTX: 14900000 instructions simulated : ctaid=(30,0,0) tid=(127,0,0)
GPGPU-Sim PTX: 15000000 instructions simulated : ctaid=(11,0,0) tid=(127,0,0)
GPGPU-Sim PTX: 15100000 instructions simulated : ctaid=(50,0,0) tid=(31,0,0)
GPGPU-Sim PTX: 15200000 instructions simulated : ctaid=(30,0,0) tid=(95,0,0)
GPGPU-Sim uArch: cycles simulated: 80000  inst.: 15192320 (ipc=189.9) sim_rate=316506 (inst/sec) elapsed = 0:0:00:48 / Wed May  1 12:44:07 2019
GPGPU-Sim PTX: 15300000 instructions simulated : ctaid=(56,0,0) tid=(31,0,0)
GPGPU-Sim PTX: 15400000 instructions simulated : ctaid=(35,0,0) tid=(95,0,0)
GPGPU-Sim PTX: 15500000 instructions simulated : ctaid=(48,0,0) tid=(95,0,0)
GPGPU-Sim uArch: cycles simulated: 81500  inst.: 15477152 (ipc=189.9) sim_rate=315860 (inst/sec) elapsed = 0:0:00:49 / Wed May  1 12:44:08 2019
GPGPU-Sim PTX: 15600000 instructions simulated : ctaid=(36,0,0) tid=(63,0,0)
GPGPU-Sim PTX: 15700000 instructions simulated : ctaid=(74,0,0) tid=(31,0,0)
GPGPU-Sim PTX: 15800000 instructions simulated : ctaid=(27,0,0) tid=(127,0,0)
GPGPU-Sim PTX: 15900000 instructions simulated : ctaid=(30,0,0) tid=(95,0,0)
GPGPU-Sim uArch: cycles simulated: 83500  inst.: 15872352 (ipc=190.1) sim_rate=317447 (inst/sec) elapsed = 0:0:00:50 / Wed May  1 12:44:09 2019
GPGPU-Sim PTX: 16000000 instructions simulated : ctaid=(59,0,0) tid=(63,0,0)
GPGPU-Sim PTX: 16100000 instructions simulated : ctaid=(42,0,0) tid=(95,0,0)
GPGPU-Sim uArch: cycles simulated: 85000  inst.: 16152416 (ipc=190.0) sim_rate=316714 (inst/sec) elapsed = 0:0:00:51 / Wed May  1 12:44:10 2019
GPGPU-Sim PTX: 16200000 instructions simulated : ctaid=(51,0,0) tid=(95,0,0)
GPGPU-Sim PTX: 16300000 instructions simulated : ctaid=(47,0,0) tid=(95,0,0)
GPGPU-Sim PTX: 16400000 instructions simulated : ctaid=(15,0,0) tid=(31,0,0)
GPGPU-Sim PTX: 16500000 instructions simulated : ctaid=(99,0,0) tid=(95,0,0)
GPGPU-Sim uArch: cycles simulated: 87000  inst.: 16499552 (ipc=189.7) sim_rate=317299 (inst/sec) elapsed = 0:0:00:52 / Wed May  1 12:44:11 2019
GPGPU-Sim PTX: 16600000 instructions simulated : ctaid=(6,0,0) tid=(95,0,0)
GPGPU-Sim PTX: 16700000 instructions simulated : ctaid=(52,0,0) tid=(31,0,0)
GPGPU-Sim PTX: 16800000 instructions simulated : ctaid=(11,0,0) tid=(63,0,0)
GPGPU-Sim uArch: cycles simulated: 88500  inst.: 16810048 (ipc=189.9) sim_rate=317170 (inst/sec) elapsed = 0:0:00:53 / Wed May  1 12:44:12 2019
GPGPU-Sim PTX: 16900000 instructions simulated : ctaid=(5,0,0) tid=(127,0,0)
GPGPU-Sim PTX: 17000000 instructions simulated : ctaid=(36,0,0) tid=(63,0,0)
GPGPU-Sim PTX: 17100000 instructions simulated : ctaid=(24,0,0) tid=(31,0,0)
GPGPU-Sim PTX: 17200000 instructions simulated : ctaid=(85,0,0) tid=(95,0,0)
GPGPU-Sim uArch: cycles simulated: 90500  inst.: 17175936 (ipc=189.8) sim_rate=318072 (inst/sec) elapsed = 0:0:00:54 / Wed May  1 12:44:13 2019
GPGPU-Sim PTX: 17300000 instructions simulated : ctaid=(54,0,0) tid=(127,0,0)
GPGPU-Sim PTX: 17400000 instructions simulated : ctaid=(6,0,0) tid=(31,0,0)
GPGPU-Sim PTX: 17500000 instructions simulated : ctaid=(4,0,0) tid=(63,0,0)
GPGPU-Sim uArch: cycles simulated: 92000  inst.: 17475616 (ipc=190.0) sim_rate=317738 (inst/sec) elapsed = 0:0:00:55 / Wed May  1 12:44:14 2019
GPGPU-Sim PTX: 17600000 instructions simulated : ctaid=(13,0,0) tid=(63,0,0)
GPGPU-Sim PTX: 17700000 instructions simulated : ctaid=(26,0,0) tid=(127,0,0)
GPGPU-Sim uArch: cycles simulated: 93500  inst.: 17747872 (ipc=189.8) sim_rate=316926 (inst/sec) elapsed = 0:0:00:56 / Wed May  1 12:44:15 2019
GPGPU-Sim PTX: 17800000 instructions simulated : ctaid=(11,0,0) tid=(63,0,0)
GPGPU-Sim PTX: 17900000 instructions simulated : ctaid=(40,0,0) tid=(63,0,0)
GPGPU-Sim PTX: 18000000 instructions simulated : ctaid=(31,0,0) tid=(127,0,0)
GPGPU-Sim PTX: 18100000 instructions simulated : ctaid=(96,0,0) tid=(31,0,0)
GPGPU-Sim uArch: cycles simulated: 95500  inst.: 18128480 (ipc=189.8) sim_rate=318043 (inst/sec) elapsed = 0:0:00:57 / Wed May  1 12:44:16 2019
GPGPU-Sim PTX: 18200000 instructions simulated : ctaid=(73,0,0) tid=(95,0,0)
GPGPU-Sim PTX: 18300000 instructions simulated : ctaid=(4,0,0) tid=(63,0,0)
GPGPU-Sim PTX: 18400000 instructions simulated : ctaid=(4,0,0) tid=(95,0,0)
GPGPU-Sim uArch: cycles simulated: 97000  inst.: 18404448 (ipc=189.7) sim_rate=317318 (inst/sec) elapsed = 0:0:00:58 / Wed May  1 12:44:17 2019
GPGPU-Sim PTX: 18500000 instructions simulated : ctaid=(52,0,0) tid=(31,0,0)
GPGPU-Sim PTX: 18600000 instructions simulated : ctaid=(11,0,0) tid=(95,0,0)
GPGPU-Sim PTX: 18700000 instructions simulated : ctaid=(48,0,0) tid=(31,0,0)
GPGPU-Sim PTX: 18800000 instructions simulated : ctaid=(9,0,0) tid=(63,0,0)
GPGPU-Sim uArch: cycles simulated: 99000  inst.: 18799264 (ipc=189.9) sim_rate=318631 (inst/sec) elapsed = 0:0:00:59 / Wed May  1 12:44:18 2019
GPGPU-Sim PTX: 18900000 instructions simulated : ctaid=(59,0,0) tid=(127,0,0)
GPGPU-Sim PTX: 19000000 instructions simulated : ctaid=(11,0,0) tid=(31,0,0)
GPGPU-Sim PTX: 19100000 instructions simulated : ctaid=(0,0,0) tid=(63,0,0)
GPGPU-Sim uArch: cycles simulated: 100500  inst.: 19092480 (ipc=190.0) sim_rate=318208 (inst/sec) elapsed = 0:0:01:00 / Wed May  1 12:44:19 2019
GPGPU-Sim PTX: 19200000 instructions simulated : ctaid=(28,0,0) tid=(127,0,0)
GPGPU-Sim PTX: 19300000 instructions simulated : ctaid=(33,0,0) tid=(127,0,0)
GPGPU-Sim PTX: 19400000 instructions simulated : ctaid=(91,0,0) tid=(31,0,0)
GPGPU-Sim uArch: cycles simulated: 102500  inst.: 19456512 (ipc=189.8) sim_rate=318959 (inst/sec) elapsed = 0:0:01:01 / Wed May  1 12:44:20 2019
GPGPU-Sim PTX: 19500000 instructions simulated : ctaid=(86,0,0) tid=(31,0,0)
GPGPU-Sim PTX: 19600000 instructions simulated : ctaid=(23,0,0) tid=(95,0,0)
GPGPU-Sim PTX: 19700000 instructions simulated : ctaid=(87,0,0) tid=(31,0,0)
GPGPU-Sim uArch: cycles simulated: 104000  inst.: 19729440 (ipc=189.7) sim_rate=318216 (inst/sec) elapsed = 0:0:01:02 / Wed May  1 12:44:21 2019
GPGPU-Sim PTX: 19800000 instructions simulated : ctaid=(43,0,0) tid=(31,0,0)
GPGPU-Sim PTX: 19900000 instructions simulated : ctaid=(53,0,0) tid=(95,0,0)
GPGPU-Sim PTX: 20000000 instructions simulated : ctaid=(27,0,0) tid=(127,0,0)
GPGPU-Sim uArch: cycles simulated: 105500  inst.: 20008128 (ipc=189.7) sim_rate=317589 (inst/sec) elapsed = 0:0:01:03 / Wed May  1 12:44:22 2019
GPGPU-Sim PTX: 20100000 instructions simulated : ctaid=(13,0,0) tid=(95,0,0)
GPGPU-Sim PTX: 20200000 instructions simulated : ctaid=(19,0,0) tid=(127,0,0)
GPGPU-Sim PTX: 20300000 instructions simulated : ctaid=(21,0,0) tid=(127,0,0)
GPGPU-Sim PTX: 20400000 instructions simulated : ctaid=(46,0,0) tid=(63,0,0)
GPGPU-Sim uArch: cycles simulated: 107500  inst.: 20386048 (ipc=189.6) sim_rate=318532 (inst/sec) elapsed = 0:0:01:04 / Wed May  1 12:44:23 2019
GPGPU-Sim PTX: 20500000 instructions simulated : ctaid=(96,0,0) tid=(31,0,0)
GPGPU-Sim PTX: 20600000 instructions simulated : ctaid=(25,0,0) tid=(63,0,0)
GPGPU-Sim PTX: 20700000 instructions simulated : ctaid=(52,0,0) tid=(127,0,0)
GPGPU-Sim uArch: cycles simulated: 109000  inst.: 20692192 (ipc=189.8) sim_rate=318341 (inst/sec) elapsed = 0:0:01:05 / Wed May  1 12:44:24 2019
GPGPU-Sim PTX: 20800000 instructions simulated : ctaid=(51,0,0) tid=(31,0,0)
GPGPU-Sim PTX: 20900000 instructions simulated : ctaid=(33,0,0) tid=(95,0,0)
GPGPU-Sim PTX: 21000000 instructions simulated : ctaid=(81,0,0) tid=(95,0,0)
GPGPU-Sim PTX: 21100000 instructions simulated : ctaid=(38,0,0) tid=(127,0,0)
GPGPU-Sim uArch: cycles simulated: 111000  inst.: 21071520 (ipc=189.8) sim_rate=319265 (inst/sec) elapsed = 0:0:01:06 / Wed May  1 12:44:25 2019
GPGPU-Sim PTX: 21200000 instructions simulated : ctaid=(40,0,0) tid=(95,0,0)
GPGPU-Sim PTX: 21300000 instructions simulated : ctaid=(34,0,0) tid=(95,0,0)
GPGPU-Sim uArch: cycles simulated: 112500  inst.: 21344928 (ipc=189.7) sim_rate=318581 (inst/sec) elapsed = 0:0:01:07 / Wed May  1 12:44:26 2019
GPGPU-Sim PTX: 21400000 instructions simulated : ctaid=(21,0,0) tid=(31,0,0)
GPGPU-Sim PTX: 21500000 instructions simulated : ctaid=(31,0,0) tid=(127,0,0)
GPGPU-Sim PTX: 21600000 instructions simulated : ctaid=(34,0,0) tid=(31,0,0)
GPGPU-Sim PTX: 21700000 instructions simulated : ctaid=(88,0,0) tid=(95,0,0)
GPGPU-Sim uArch: cycles simulated: 114000  inst.: 21675904 (ipc=190.1) sim_rate=318763 (inst/sec) elapsed = 0:0:01:08 / Wed May  1 12:44:27 2019
GPGPU-Sim PTX: 21800000 instructions simulated : ctaid=(22,0,0) tid=(127,0,0)
GPGPU-Sim PTX: 21900000 instructions simulated : ctaid=(50,0,0) tid=(127,0,0)
GPGPU-Sim PTX: 22000000 instructions simulated : ctaid=(26,0,0) tid=(95,0,0)
GPGPU-Sim uArch: cycles simulated: 116000  inst.: 22035488 (ipc=190.0) sim_rate=319354 (inst/sec) elapsed = 0:0:01:09 / Wed May  1 12:44:28 2019
GPGPU-Sim PTX: 22100000 instructions simulated : ctaid=(26,0,0) tid=(127,0,0)
GPGPU-Sim PTX: 22200000 instructions simulated : ctaid=(35,0,0) tid=(95,0,0)
GPGPU-Sim PTX: 22300000 instructions simulated : ctaid=(48,0,0) tid=(63,0,0)
GPGPU-Sim uArch: cycles simulated: 117500  inst.: 22304544 (ipc=189.8) sim_rate=318636 (inst/sec) elapsed = 0:0:01:10 / Wed May  1 12:44:29 2019
GPGPU-Sim PTX: 22400000 instructions simulated : ctaid=(61,0,0) tid=(31,0,0)
GPGPU-Sim PTX: 22500000 instructions simulated : ctaid=(11,0,0) tid=(63,0,0)
GPGPU-Sim PTX: 22600000 instructions simulated : ctaid=(36,0,0) tid=(95,0,0)
GPGPU-Sim PTX: 22700000 instructions simulated : ctaid=(12,0,0) tid=(127,0,0)
GPGPU-Sim uArch: cycles simulated: 119500  inst.: 22672256 (ipc=189.7) sim_rate=319327 (inst/sec) elapsed = 0:0:01:11 / Wed May  1 12:44:30 2019
GPGPU-Sim PTX: 22800000 instructions simulated : ctaid=(11,0,0) tid=(127,0,0)
GPGPU-Sim PTX: 22900000 instructions simulated : ctaid=(9,0,0) tid=(63,0,0)
GPGPU-Sim uArch: cycles simulated: 121000  inst.: 22946304 (ipc=189.6) sim_rate=318698 (inst/sec) elapsed = 0:0:01:12 / Wed May  1 12:44:31 2019
GPGPU-Sim PTX: 23000000 instructions simulated : ctaid=(27,0,0) tid=(63,0,0)
GPGPU-Sim PTX: 23100000 instructions simulated : ctaid=(25,0,0) tid=(31,0,0)
GPGPU-Sim PTX: 23200000 instructions simulated : ctaid=(48,0,0) tid=(31,0,0)
GPGPU-Sim uArch: cycles simulated: 122500  inst.: 23251744 (ipc=189.8) sim_rate=318517 (inst/sec) elapsed = 0:0:01:13 / Wed May  1 12:44:32 2019
GPGPU-Sim PTX: 23300000 instructions simulated : ctaid=(55,0,0) tid=(95,0,0)
GPGPU-Sim PTX: 23400000 instructions simulated : ctaid=(88,0,0) tid=(95,0,0)
GPGPU-Sim PTX: 23500000 instructions simulated : ctaid=(100,0,0) tid=(63,0,0)
GPGPU-Sim PTX: 23600000 instructions simulated : ctaid=(5,0,0) tid=(127,0,0)
GPGPU-Sim uArch: cycles simulated: 124500  inst.: 23655040 (ipc=190.0) sim_rate=319662 (inst/sec) elapsed = 0:0:01:14 / Wed May  1 12:44:33 2019
GPGPU-Sim PTX: 23700000 instructions simulated : ctaid=(8,0,0) tid=(31,0,0)
GPGPU-Sim PTX: 23800000 instructions simulated : ctaid=(39,0,0) tid=(31,0,0)
GPGPU-Sim PTX: 23900000 instructions simulated : ctaid=(34,0,0) tid=(95,0,0)
GPGPU-Sim uArch: cycles simulated: 126000  inst.: 23927744 (ipc=189.9) sim_rate=319036 (inst/sec) elapsed = 0:0:01:15 / Wed May  1 12:44:34 2019
GPGPU-Sim PTX: 24000000 instructions simulated : ctaid=(34,0,0) tid=(31,0,0)
GPGPU-Sim PTX: 24100000 instructions simulated : ctaid=(16,0,0) tid=(63,0,0)
GPGPU-Sim PTX: 24200000 instructions simulated : ctaid=(40,0,0) tid=(31,0,0)
GPGPU-Sim uArch: cycles simulated: 127500  inst.: 24192672 (ipc=189.7) sim_rate=318324 (inst/sec) elapsed = 0:0:01:16 / Wed May  1 12:44:35 2019
GPGPU-Sim PTX: 24300000 instructions simulated : ctaid=(37,0,0) tid=(127,0,0)
GPGPU-Sim PTX: 24400000 instructions simulated : ctaid=(22,0,0) tid=(127,0,0)
GPGPU-Sim PTX: 24500000 instructions simulated : ctaid=(93,0,0) tid=(31,0,0)
GPGPU-Sim PTX: 24600000 instructions simulated : ctaid=(34,0,0) tid=(95,0,0)
GPGPU-Sim uArch: cycles simulated: 129500  inst.: 24570624 (ipc=189.7) sim_rate=319099 (inst/sec) elapsed = 0:0:01:17 / Wed May  1 12:44:36 2019
GPGPU-Sim PTX: 24700000 instructions simulated : ctaid=(47,0,0) tid=(31,0,0)
GPGPU-Sim PTX: 24800000 instructions simulated : ctaid=(21,0,0) tid=(63,0,0)
GPGPU-Sim uArch: cycles simulated: 131000  inst.: 24850496 (ipc=189.7) sim_rate=318596 (inst/sec) elapsed = 0:0:01:18 / Wed May  1 12:44:37 2019
GPGPU-Sim PTX: 24900000 instructions simulated : ctaid=(82,0,0) tid=(95,0,0)
GPGPU-Sim PTX: 25000000 instructions simulated : ctaid=(52,0,0) tid=(95,0,0)
GPGPU-Sim PTX: 25100000 instructions simulated : ctaid=(26,0,0) tid=(127,0,0)
GPGPU-Sim PTX: 25200000 instructions simulated : ctaid=(40,0,0) tid=(31,0,0)
GPGPU-Sim uArch: cycles simulated: 133000  inst.: 25205856 (ipc=189.5) sim_rate=319061 (inst/sec) elapsed = 0:0:01:19 / Wed May  1 12:44:38 2019
GPGPU-Sim PTX: 25300000 instructions simulated : ctaid=(109,0,0) tid=(31,0,0)
GPGPU-Sim PTX: 25400000 instructions simulated : ctaid=(12,0,0) tid=(63,0,0)
GPGPU-Sim PTX: 25500000 instructions simulated : ctaid=(1,0,0) tid=(31,0,0)
GPGPU-Sim uArch: cycles simulated: 134500  inst.: 25506112 (ipc=189.6) sim_rate=318826 (inst/sec) elapsed = 0:0:01:20 / Wed May  1 12:44:39 2019
GPGPU-Sim PTX: 25600000 instructions simulated : ctaid=(58,0,0) tid=(31,0,0)
GPGPU-Sim PTX: 25700000 instructions simulated : ctaid=(68,0,0) tid=(31,0,0)
GPGPU-Sim PTX: 25800000 instructions simulated : ctaid=(44,0,0) tid=(127,0,0)
GPGPU-Sim uArch: cycles simulated: 136000  inst.: 25793504 (ipc=189.7) sim_rate=318438 (inst/sec) elapsed = 0:0:01:21 / Wed May  1 12:44:40 2019
GPGPU-Sim PTX: 25900000 instructions simulated : ctaid=(103,0,0) tid=(31,0,0)
GPGPU-Sim PTX: 26000000 instructions simulated : ctaid=(48,0,0) tid=(127,0,0)
GPGPU-Sim PTX: 26100000 instructions simulated : ctaid=(82,0,0) tid=(31,0,0)
GPGPU-Sim uArch: cycles simulated: 138000  inst.: 26140288 (ipc=189.4) sim_rate=318784 (inst/sec) elapsed = 0:0:01:22 / Wed May  1 12:44:41 2019
GPGPU-Sim PTX: 26200000 instructions simulated : ctaid=(78,0,0) tid=(95,0,0)
GPGPU-Sim PTX: 26300000 instructions simulated : ctaid=(9,0,0) tid=(31,0,0)
GPGPU-Sim PTX: 26400000 instructions simulated : ctaid=(37,0,0) tid=(95,0,0)
GPGPU-Sim uArch: cycles simulated: 139500  inst.: 26386688 (ipc=189.2) sim_rate=317911 (inst/sec) elapsed = 0:0:01:23 / Wed May  1 12:44:42 2019
GPGPU-Sim PTX: 26500000 instructions simulated : ctaid=(65,0,0) tid=(95,0,0)
GPGPU-Sim PTX: 26600000 instructions simulated : ctaid=(34,0,0) tid=(31,0,0)
GPGPU-Sim PTX: 26700000 instructions simulated : ctaid=(117,0,0) tid=(95,0,0)
GPGPU-Sim PTX: 26800000 instructions simulated : ctaid=(35,0,0) tid=(31,0,0)
GPGPU-Sim uArch: cycles simulated: 141500  inst.: 26778912 (ipc=189.3) sim_rate=318796 (inst/sec) elapsed = 0:0:01:24 / Wed May  1 12:44:43 2019
GPGPU-Sim PTX: 26900000 instructions simulated : ctaid=(63,0,0) tid=(95,0,0)
GPGPU-Sim PTX: 27000000 instructions simulated : ctaid=(59,0,0) tid=(95,0,0)
GPGPU-Sim uArch: cycles simulated: 143000  inst.: 27023552 (ipc=189.0) sim_rate=317924 (inst/sec) elapsed = 0:0:01:25 / Wed May  1 12:44:44 2019
GPGPU-Sim PTX: 27100000 instructions simulated : ctaid=(83,0,0) tid=(31,0,0)
GPGPU-Sim PTX: 27200000 instructions simulated : ctaid=(1,0,0) tid=(31,0,0)
GPGPU-Sim PTX: 27300000 instructions simulated : ctaid=(31,0,0) tid=(127,0,0)
GPGPU-Sim uArch: cycles simulated: 145000  inst.: 27350848 (ipc=188.6) sim_rate=318033 (inst/sec) elapsed = 0:0:01:26 / Wed May  1 12:44:45 2019
GPGPU-Sim PTX: 27400000 instructions simulated : ctaid=(27,0,0) tid=(31,0,0)
GPGPU-Sim PTX: 27500000 instructions simulated : ctaid=(86,0,0) tid=(63,0,0)
GPGPU-Sim PTX: 27600000 instructions simulated : ctaid=(47,0,0) tid=(95,0,0)
GPGPU-Sim uArch: cycles simulated: 146500  inst.: 27654080 (ipc=188.8) sim_rate=317862 (inst/sec) elapsed = 0:0:01:27 / Wed May  1 12:44:46 2019
GPGPU-Sim PTX: 27700000 instructions simulated : ctaid=(69,0,0) tid=(31,0,0)
GPGPU-Sim PTX: 27800000 instructions simulated : ctaid=(26,0,0) tid=(31,0,0)
GPGPU-Sim PTX: 27900000 instructions simulated : ctaid=(70,0,0) tid=(63,0,0)
GPGPU-Sim PTX: 28000000 instructions simulated : ctaid=(52,0,0) tid=(127,0,0)
GPGPU-Sim uArch: cycles simulated: 148500  inst.: 27982400 (ipc=188.4) sim_rate=317981 (inst/sec) elapsed = 0:0:01:28 / Wed May  1 12:44:47 2019
GPGPU-Sim PTX: 28100000 instructions simulated : ctaid=(24,0,0) tid=(127,0,0)
GPGPU-Sim PTX: 28200000 instructions simulated : ctaid=(84,0,0) tid=(31,0,0)
GPGPU-Sim uArch: cycles simulated: 150000  inst.: 28255168 (ipc=188.4) sim_rate=317473 (inst/sec) elapsed = 0:0:01:29 / Wed May  1 12:44:48 2019
GPGPU-Sim PTX: 28300000 instructions simulated : ctaid=(67,0,0) tid=(63,0,0)
GPGPU-Sim PTX: 28400000 instructions simulated : ctaid=(43,0,0) tid=(63,0,0)
GPGPU-Sim PTX: 28500000 instructions simulated : ctaid=(84,0,0) tid=(127,0,0)
GPGPU-Sim PTX: 28600000 instructions simulated : ctaid=(65,0,0) tid=(95,0,0)
GPGPU-Sim uArch: cycles simulated: 152000  inst.: 28642784 (ipc=188.4) sim_rate=318253 (inst/sec) elapsed = 0:0:01:30 / Wed May  1 12:44:49 2019
GPGPU-Sim PTX: 28700000 instructions simulated : ctaid=(38,0,0) tid=(127,0,0)
GPGPU-Sim PTX: 28800000 instructions simulated : ctaid=(41,0,0) tid=(31,0,0)
GPGPU-Sim PTX: 28900000 instructions simulated : ctaid=(84,0,0) tid=(63,0,0)
GPGPU-Sim uArch: cycles simulated: 153500  inst.: 28879232 (ipc=188.1) sim_rate=317354 (inst/sec) elapsed = 0:0:01:31 / Wed May  1 12:44:50 2019
GPGPU-Sim PTX: 29000000 instructions simulated : ctaid=(30,0,0) tid=(31,0,0)
GPGPU-Sim PTX: 29100000 instructions simulated : ctaid=(93,0,0) tid=(95,0,0)
GPGPU-Sim PTX: 29200000 instructions simulated : ctaid=(96,0,0) tid=(31,0,0)
GPGPU-Sim uArch: cycles simulated: 155500  inst.: 29181152 (ipc=187.7) sim_rate=317186 (inst/sec) elapsed = 0:0:01:32 / Wed May  1 12:44:51 2019
GPGPU-Sim PTX: 29300000 instructions simulated : ctaid=(77,0,0) tid=(31,0,0)
GPGPU-Sim PTX: 29400000 instructions simulated : ctaid=(36,0,0) tid=(127,0,0)
GPGPU-Sim PTX: 29500000 instructions simulated : ctaid=(114,0,0) tid=(95,0,0)
GPGPU-Sim uArch: cycles simulated: 157500  inst.: 29530976 (ipc=187.5) sim_rate=317537 (inst/sec) elapsed = 0:0:01:33 / Wed May  1 12:44:52 2019
GPGPU-Sim PTX: 29600000 instructions simulated : ctaid=(102,0,0) tid=(95,0,0)
GPGPU-Sim PTX: 29700000 instructions simulated : ctaid=(66,0,0) tid=(95,0,0)
GPGPU-Sim PTX: 29800000 instructions simulated : ctaid=(100,0,0) tid=(95,0,0)
GPGPU-Sim uArch: cycles simulated: 159000  inst.: 29822272 (ipc=187.6) sim_rate=317258 (inst/sec) elapsed = 0:0:01:34 / Wed May  1 12:44:53 2019
GPGPU-Sim PTX: 29900000 instructions simulated : ctaid=(26,0,0) tid=(63,0,0)
GPGPU-Sim PTX: 30000000 instructions simulated : ctaid=(8,0,0) tid=(63,0,0)
GPGPU-Sim uArch: Shader 2 finished CTA #0 (160151,0), 7 CTAs running
GPGPU-Sim uArch: core:  2, cta: 0 initialized @(160152,0)
GPGPU-Sim PTX: 30100000 instructions simulated : ctaid=(65,0,0) tid=(95,0,0)
GPGPU-Sim PTX: 30200000 instructions simulated : ctaid=(65,0,0) tid=(127,0,0)
GPGPU-Sim uArch: cycles simulated: 161000  inst.: 30190624 (ipc=187.5) sim_rate=317796 (inst/sec) elapsed = 0:0:01:35 / Wed May  1 12:44:54 2019
GPGPU-Sim PTX: 30300000 instructions simulated : ctaid=(17,0,0) tid=(63,0,0)
GPGPU-Sim PTX: 30400000 instructions simulated : ctaid=(85,0,0) tid=(95,0,0)
GPGPU-Sim PTX: 30500000 instructions simulated : ctaid=(104,0,0) tid=(95,0,0)
GPGPU-Sim uArch: cycles simulated: 162500  inst.: 30471936 (ipc=187.5) sim_rate=317416 (inst/sec) elapsed = 0:0:01:36 / Wed May  1 12:44:55 2019
GPGPU-Sim PTX: 30600000 instructions simulated : ctaid=(119,0,0) tid=(95,0,0)
GPGPU-Sim uArch: Shader 10 finished CTA #0 (163616,0), 7 CTAs running
GPGPU-Sim uArch: core: 10, cta: 0 initialized @(163617,0)
GPGPU-Sim PTX: 30700000 instructions simulated : ctaid=(45,0,0) tid=(31,0,0)
GPGPU-Sim uArch: Shader 4 finished CTA #0 (164124,0), 7 CTAs running
GPGPU-Sim uArch: core:  4, cta: 0 initialized @(164125,0)
GPGPU-Sim PTX: 30800000 instructions simulated : ctaid=(29,0,0) tid=(127,0,0)
GPGPU-Sim uArch: cycles simulated: 164500  inst.: 30829344 (ipc=187.4) sim_rate=317828 (inst/sec) elapsed = 0:0:01:37 / Wed May  1 12:44:56 2019
GPGPU-Sim PTX: 30900000 instructions simulated : ctaid=(64,0,0) tid=(127,0,0)
GPGPU-Sim PTX: 31000000 instructions simulated : ctaid=(112,0,0) tid=(31,0,0)
GPGPU-Sim PTX: 31100000 instructions simulated : ctaid=(40,0,0) tid=(127,0,0)
GPGPU-Sim uArch: cycles simulated: 166500  inst.: 31155552 (ipc=187.1) sim_rate=317913 (inst/sec) elapsed = 0:0:01:38 / Wed May  1 12:44:57 2019
GPGPU-Sim PTX: 31200000 instructions simulated : ctaid=(52,0,0) tid=(63,0,0)
GPGPU-Sim uArch: Shader 8 finished CTA #0 (166970,0), 7 CTAs running
GPGPU-Sim uArch: core:  8, cta: 0 initialized @(166971,0)
GPGPU-Sim PTX: 31300000 instructions simulated : ctaid=(11,0,0) tid=(63,0,0)
GPGPU-Sim uArch: Shader 9 finished CTA #0 (167299,0), 7 CTAs running
GPGPU-Sim uArch: core:  9, cta: 0 initialized @(167300,0)
GPGPU-Sim PTX: 31400000 instructions simulated : ctaid=(39,0,0) tid=(63,0,0)
GPGPU-Sim uArch: Shader 5 finished CTA #1 (167900,0), 7 CTAs running
GPGPU-Sim uArch: core:  5, cta: 1 initialized @(167901,0)
GPGPU-Sim uArch: cycles simulated: 168000  inst.: 31456224 (ipc=187.2) sim_rate=317739 (inst/sec) elapsed = 0:0:01:39 / Wed May  1 12:44:58 2019
GPGPU-Sim PTX: 31500000 instructions simulated : ctaid=(56,0,0) tid=(127,0,0)
GPGPU-Sim uArch: Shader 3 finished CTA #0 (168096,0), 7 CTAs running
GPGPU-Sim uArch: core:  3, cta: 0 initialized @(168097,0)
GPGPU-Sim PTX: 31600000 instructions simulated : ctaid=(55,0,0) tid=(127,0,0)
GPGPU-Sim uArch: Shader 11 finished CTA #0 (168790,0), 7 CTAs running
GPGPU-Sim uArch: core: 11, cta: 0 initialized @(168791,0)
GPGPU-Sim PTX: 31700000 instructions simulated : ctaid=(50,0,0) tid=(63,0,0)
GPGPU-Sim uArch: Shader 7 finished CTA #0 (169400,0), 7 CTAs running
GPGPU-Sim uArch: core:  7, cta: 0 initialized @(169401,0)
GPGPU-Sim PTX: 31800000 instructions simulated : ctaid=(38,0,0) tid=(127,0,0)
GPGPU-Sim uArch: Shader 0 finished CTA #0 (169738,0), 7 CTAs running
GPGPU-Sim uArch: core:  0, cta: 0 initialized @(169739,0)
GPGPU-Sim uArch: cycles simulated: 170000  inst.: 31827424 (ipc=187.2) sim_rate=318274 (inst/sec) elapsed = 0:0:01:40 / Wed May  1 12:44:59 2019
GPGPU-Sim PTX: 31900000 instructions simulated : ctaid=(122,0,0) tid=(95,0,0)
GPGPU-Sim PTX: 32000000 instructions simulated : ctaid=(81,0,0) tid=(95,0,0)
GPGPU-Sim uArch: Shader 14 finished CTA #0 (170944,0), 7 CTAs running
GPGPU-Sim uArch: core: 14, cta: 0 initialized @(170945,0)
GPGPU-Sim uArch: Shader 5 finished CTA #0 (171235,0), 7 CTAs running
GPGPU-Sim uArch: core:  5, cta: 0 initialized @(171236,0)
GPGPU-Sim PTX: 32100000 instructions simulated : ctaid=(110,0,0) tid=(95,0,0)
GPGPU-Sim uArch: cycles simulated: 171500  inst.: 32099040 (ipc=187.2) sim_rate=317812 (inst/sec) elapsed = 0:0:01:41 / Wed May  1 12:45:00 2019
GPGPU-Sim PTX: 32200000 instructions simulated : ctaid=(44,0,0) tid=(63,0,0)
GPGPU-Sim PTX: 32300000 instructions simulated : ctaid=(21,0,0) tid=(63,0,0)
GPGPU-Sim uArch: Shader 13 finished CTA #0 (172778,0), 7 CTAs running
GPGPU-Sim uArch: core: 13, cta: 0 initialized @(172779,0)
GPGPU-Sim PTX: 32400000 instructions simulated : ctaid=(101,0,0) tid=(63,0,0)
GPGPU-Sim uArch: Shader 1 finished CTA #0 (173246,0), 7 CTAs running
GPGPU-Sim uArch: core:  1, cta: 0 initialized @(173247,0)
GPGPU-Sim PTX: 32500000 instructions simulated : ctaid=(11,0,0) tid=(63,0,0)
GPGPU-Sim uArch: cycles simulated: 173500  inst.: 32499904 (ipc=187.3) sim_rate=318626 (inst/sec) elapsed = 0:0:01:42 / Wed May  1 12:45:01 2019
GPGPU-Sim PTX: 32600000 instructions simulated : ctaid=(97,0,0) tid=(63,0,0)
GPGPU-Sim PTX: 32700000 instructions simulated : ctaid=(32,0,0) tid=(127,0,0)
GPGPU-Sim uArch: cycles simulated: 175000  inst.: 32747648 (ipc=187.1) sim_rate=317938 (inst/sec) elapsed = 0:0:01:43 / Wed May  1 12:45:02 2019
GPGPU-Sim PTX: 32800000 instructions simulated : ctaid=(48,0,0) tid=(63,0,0)
GPGPU-Sim uArch: Shader 10 finished CTA #1 (175328,0), 7 CTAs running
GPGPU-Sim uArch: core: 10, cta: 1 initialized @(175329,0)
GPGPU-Sim PTX: 32900000 instructions simulated : ctaid=(90,0,0) tid=(95,0,0)
GPGPU-Sim uArch: Shader 3 finished CTA #1 (175831,0), 7 CTAs running
GPGPU-Sim uArch: core:  3, cta: 1 initialized @(175832,0)
GPGPU-Sim PTX: 33000000 instructions simulated : ctaid=(109,0,0) tid=(95,0,0)
GPGPU-Sim uArch: Shader 4 finished CTA #1 (176210,0), 7 CTAs running
GPGPU-Sim uArch: core:  4, cta: 1 initialized @(176211,0)
GPGPU-Sim PTX: 33100000 instructions simulated : ctaid=(79,0,0) tid=(95,0,0)
GPGPU-Sim uArch: cycles simulated: 177000  inst.: 33114944 (ipc=187.1) sim_rate=318412 (inst/sec) elapsed = 0:0:01:44 / Wed May  1 12:45:03 2019
GPGPU-Sim PTX: 33200000 instructions simulated : ctaid=(67,0,0) tid=(31,0,0)
GPGPU-Sim PTX: 33300000 instructions simulated : ctaid=(128,0,0) tid=(31,0,0)
GPGPU-Sim uArch: Shader 6 finished CTA #1 (178081,0), 7 CTAs running
GPGPU-Sim uArch: core:  6, cta: 1 initialized @(178082,0)
GPGPU-Sim PTX: 33400000 instructions simulated : ctaid=(49,0,0) tid=(63,0,0)
GPGPU-Sim uArch: cycles simulated: 178500  inst.: 33423392 (ipc=187.2) sim_rate=318318 (inst/sec) elapsed = 0:0:01:45 / Wed May  1 12:45:04 2019
GPGPU-Sim PTX: 33500000 instructions simulated : ctaid=(82,0,0) tid=(31,0,0)
GPGPU-Sim PTX: 33600000 instructions simulated : ctaid=(84,0,0) tid=(95,0,0)
GPGPU-Sim uArch: Shader 6 finished CTA #0 (179348,0), 7 CTAs running
GPGPU-Sim uArch: core:  6, cta: 0 initialized @(179349,0)
GPGPU-Sim PTX: 33700000 instructions simulated : ctaid=(76,0,0) tid=(127,0,0)
GPGPU-Sim uArch: cycles simulated: 180000  inst.: 33715232 (ipc=187.3) sim_rate=318068 (inst/sec) elapsed = 0:0:01:46 / Wed May  1 12:45:05 2019
GPGPU-Sim uArch: Shader 7 finished CTA #1 (180115,0), 7 CTAs running
GPGPU-Sim uArch: core:  7, cta: 1 initialized @(180116,0)
GPGPU-Sim PTX: 33800000 instructions simulated : ctaid=(61,0,0) tid=(127,0,0)
GPGPU-Sim uArch: Shader 2 finished CTA #1 (180272,0), 7 CTAs running
GPGPU-Sim uArch: core:  2, cta: 1 initialized @(180273,0)
GPGPU-Sim uArch: Shader 12 finished CTA #0 (180397,0), 7 CTAs running
GPGPU-Sim uArch: core: 12, cta: 0 initialized @(180398,0)
GPGPU-Sim PTX: 33900000 instructions simulated : ctaid=(108,0,0) tid=(31,0,0)
GPGPU-Sim PTX: 34000000 instructions simulated : ctaid=(47,0,0) tid=(127,0,0)
GPGPU-Sim PTX: 34100000 instructions simulated : ctaid=(80,0,0) tid=(63,0,0)
GPGPU-Sim uArch: cycles simulated: 182000  inst.: 34102688 (ipc=187.4) sim_rate=318716 (inst/sec) elapsed = 0:0:01:47 / Wed May  1 12:45:06 2019
GPGPU-Sim PTX: 34200000 instructions simulated : ctaid=(79,0,0) tid=(95,0,0)
GPGPU-Sim PTX: 34300000 instructions simulated : ctaid=(135,0,0) tid=(95,0,0)
GPGPU-Sim PTX: 34400000 instructions simulated : ctaid=(96,0,0) tid=(95,0,0)
GPGPU-Sim uArch: cycles simulated: 183500  inst.: 34417280 (ipc=187.6) sim_rate=318678 (inst/sec) elapsed = 0:0:01:48 / Wed May  1 12:45:07 2019
GPGPU-Sim uArch: Shader 13 finished CTA #1 (183597,0), 7 CTAs running
GPGPU-Sim uArch: core: 13, cta: 1 initialized @(183598,0)
GPGPU-Sim uArch: Shader 9 finished CTA #1 (183708,0), 7 CTAs running
GPGPU-Sim uArch: core:  9, cta: 1 initialized @(183709,0)
GPGPU-Sim PTX: 34500000 instructions simulated : ctaid=(89,0,0) tid=(31,0,0)
GPGPU-Sim PTX: 34600000 instructions simulated : ctaid=(117,0,0) tid=(95,0,0)
GPGPU-Sim PTX: 34700000 instructions simulated : ctaid=(68,0,0) tid=(63,0,0)
GPGPU-Sim uArch: Shader 11 finished CTA #1 (184921,0), 7 CTAs running
GPGPU-Sim uArch: core: 11, cta: 1 initialized @(184922,0)
GPGPU-Sim PTX: 34800000 instructions simulated : ctaid=(48,0,0) tid=(127,0,0)
GPGPU-Sim uArch: cycles simulated: 185500  inst.: 34772384 (ipc=187.5) sim_rate=319012 (inst/sec) elapsed = 0:0:01:49 / Wed May  1 12:45:08 2019
GPGPU-Sim PTX: 34900000 instructions simulated : ctaid=(101,0,0) tid=(95,0,0)
GPGPU-Sim PTX: 35000000 instructions simulated : ctaid=(34,0,0) tid=(63,0,0)
GPGPU-Sim uArch: Shader 12 finished CTA #1 (186617,0), 7 CTAs running
GPGPU-Sim uArch: core: 12, cta: 1 initialized @(186618,0)
GPGPU-Sim PTX: 35100000 instructions simulated : ctaid=(95,0,0) tid=(31,0,0)
GPGPU-Sim uArch: cycles simulated: 187000  inst.: 35090368 (ipc=187.6) sim_rate=319003 (inst/sec) elapsed = 0:0:01:50 / Wed May  1 12:45:09 2019
GPGPU-Sim PTX: 35200000 instructions simulated : ctaid=(126,0,0) tid=(95,0,0)
GPGPU-Sim uArch: Shader 1 finished CTA #1 (187753,0), 7 CTAs running
GPGPU-Sim uArch: core:  1, cta: 1 initialized @(187754,0)
GPGPU-Sim PTX: 35300000 instructions simulated : ctaid=(113,0,0) tid=(31,0,0)
GPGPU-Sim PTX: 35400000 instructions simulated : ctaid=(123,0,0) tid=(95,0,0)
GPGPU-Sim uArch: cycles simulated: 188500  inst.: 35387232 (ipc=187.7) sim_rate=318803 (inst/sec) elapsed = 0:0:01:51 / Wed May  1 12:45:10 2019
GPGPU-Sim PTX: 35500000 instructions simulated : ctaid=(119,0,0) tid=(95,0,0)
GPGPU-Sim uArch: Shader 10 finished CTA #2 (189092,0), 7 CTAs running
GPGPU-Sim uArch: core: 10, cta: 2 initialized @(189093,0)
GPGPU-Sim PTX: 35600000 instructions simulated : ctaid=(135,0,0) tid=(95,0,0)
GPGPU-Sim PTX: 35700000 instructions simulated : ctaid=(34,0,0) tid=(63,0,0)
GPGPU-Sim uArch: Shader 8 finished CTA #1 (190118,0), 7 CTAs running
GPGPU-Sim uArch: core:  8, cta: 1 initialized @(190119,0)
GPGPU-Sim PTX: 35800000 instructions simulated : ctaid=(117,0,0) tid=(63,0,0)
GPGPU-Sim uArch: cycles simulated: 190500  inst.: 35774144 (ipc=187.8) sim_rate=319412 (inst/sec) elapsed = 0:0:01:52 / Wed May  1 12:45:11 2019
GPGPU-Sim PTX: 35900000 instructions simulated : ctaid=(46,0,0) tid=(63,0,0)
GPGPU-Sim PTX: 36000000 instructions simulated : ctaid=(88,0,0) tid=(95,0,0)
GPGPU-Sim PTX: 36100000 instructions simulated : ctaid=(134,0,0) tid=(95,0,0)
GPGPU-Sim uArch: cycles simulated: 192000  inst.: 36060096 (ipc=187.8) sim_rate=319115 (inst/sec) elapsed = 0:0:01:53 / Wed May  1 12:45:12 2019
GPGPU-Sim uArch: Shader 4 finished CTA #2 (192007,0), 7 CTAs running
GPGPU-Sim uArch: core:  4, cta: 2 initialized @(192008,0)
GPGPU-Sim uArch: Shader 14 finished CTA #1 (192356,0), 7 CTAs running
GPGPU-Sim uArch: core: 14, cta: 1 initialized @(192357,0)
GPGPU-Sim PTX: 36200000 instructions simulated : ctaid=(117,0,0) tid=(95,0,0)
GPGPU-Sim PTX: 36300000 instructions simulated : ctaid=(90,0,0) tid=(63,0,0)
GPGPU-Sim uArch: Shader 3 finished CTA #2 (193223,0), 7 CTAs running
GPGPU-Sim uArch: core:  3, cta: 2 initialized @(193224,0)
GPGPU-Sim uArch: Shader 0 finished CTA #1 (193246,0), 7 CTAs running
GPGPU-Sim uArch: core:  0, cta: 1 initialized @(193247,0)
GPGPU-Sim uArch: cycles simulated: 193500  inst.: 36350112 (ipc=187.9) sim_rate=318860 (inst/sec) elapsed = 0:0:01:54 / Wed May  1 12:45:13 2019
GPGPU-Sim PTX: 36400000 instructions simulated : ctaid=(47,0,0) tid=(63,0,0)
GPGPU-Sim PTX: 36500000 instructions simulated : ctaid=(30,0,0) tid=(127,0,0)
GPGPU-Sim PTX: 36600000 instructions simulated : ctaid=(37,0,0) tid=(127,0,0)
GPGPU-Sim PTX: 36700000 instructions simulated : ctaid=(118,0,0) tid=(127,0,0)
GPGPU-Sim uArch: cycles simulated: 195500  inst.: 36720192 (ipc=187.8) sim_rate=319306 (inst/sec) elapsed = 0:0:01:55 / Wed May  1 12:45:14 2019
GPGPU-Sim PTX: 36800000 instructions simulated : ctaid=(30,0,0) tid=(63,0,0)
GPGPU-Sim PTX: 36900000 instructions simulated : ctaid=(69,0,0) tid=(127,0,0)
GPGPU-Sim PTX: 37000000 instructions simulated : ctaid=(93,0,0) tid=(95,0,0)
GPGPU-Sim uArch: cycles simulated: 197000  inst.: 37020352 (ipc=187.9) sim_rate=319140 (inst/sec) elapsed = 0:0:01:56 / Wed May  1 12:45:15 2019
GPGPU-Sim PTX: 37100000 instructions simulated : ctaid=(52,0,0) tid=(63,0,0)
GPGPU-Sim PTX: 37200000 instructions simulated : ctaid=(116,0,0) tid=(95,0,0)
GPGPU-Sim PTX: 37300000 instructions simulated : ctaid=(114,0,0) tid=(31,0,0)
GPGPU-Sim PTX: 37400000 instructions simulated : ctaid=(31,0,0) tid=(127,0,0)
GPGPU-Sim uArch: cycles simulated: 199000  inst.: 37369120 (ipc=187.8) sim_rate=319394 (inst/sec) elapsed = 0:0:01:57 / Wed May  1 12:45:16 2019
GPGPU-Sim PTX: 37500000 instructions simulated : ctaid=(113,0,0) tid=(95,0,0)
GPGPU-Sim PTX: 37600000 instructions simulated : ctaid=(93,0,0) tid=(95,0,0)
GPGPU-Sim PTX: 37700000 instructions simulated : ctaid=(94,0,0) tid=(127,0,0)
GPGPU-Sim uArch: cycles simulated: 200500  inst.: 37686784 (ipc=188.0) sim_rate=319379 (inst/sec) elapsed = 0:0:01:58 / Wed May  1 12:45:17 2019
GPGPU-Sim PTX: 37800000 instructions simulated : ctaid=(132,0,0) tid=(95,0,0)
GPGPU-Sim uArch: Shader 9 finished CTA #2 (200822,0), 7 CTAs running
GPGPU-Sim uArch: core:  9, cta: 2 initialized @(200823,0)
GPGPU-Sim uArch: Shader 12 finished CTA #2 (201144,0), 7 CTAs running
GPGPU-Sim uArch: core: 12, cta: 2 initialized @(201145,0)
GPGPU-Sim PTX: 37900000 instructions simulated : ctaid=(92,0,0) tid=(31,0,0)
GPGPU-Sim uArch: Shader 11 finished CTA #2 (201800,0), 7 CTAs running
GPGPU-Sim uArch: core: 11, cta: 2 initialized @(201801,0)
GPGPU-Sim PTX: 38000000 instructions simulated : ctaid=(99,0,0) tid=(95,0,0)
GPGPU-Sim uArch: cycles simulated: 202000  inst.: 37969536 (ipc=188.0) sim_rate=319071 (inst/sec) elapsed = 0:0:01:59 / Wed May  1 12:45:18 2019
GPGPU-Sim PTX: 38100000 instructions simulated : ctaid=(75,0,0) tid=(31,0,0)
GPGPU-Sim uArch: Shader 1 finished CTA #2 (202425,0), 7 CTAs running
GPGPU-Sim uArch: core:  1, cta: 2 initialized @(202426,0)
GPGPU-Sim PTX: 38200000 instructions simulated : ctaid=(98,0,0) tid=(31,0,0)
GPGPU-Sim PTX: 38300000 instructions simulated : ctaid=(86,0,0) tid=(127,0,0)
GPGPU-Sim uArch: Shader 5 finished CTA #2 (203745,0), 7 CTAs running
GPGPU-Sim uArch: core:  5, cta: 2 initialized @(203746,0)
GPGPU-Sim uArch: cycles simulated: 204000  inst.: 38340160 (ipc=187.9) sim_rate=319501 (inst/sec) elapsed = 0:0:02:00 / Wed May  1 12:45:19 2019
GPGPU-Sim PTX: 38400000 instructions simulated : ctaid=(66,0,0) tid=(127,0,0)
GPGPU-Sim PTX: 38500000 instructions simulated : ctaid=(144,0,0) tid=(31,0,0)
GPGPU-Sim uArch: Shader 7 finished CTA #2 (204772,0), 7 CTAs running
GPGPU-Sim uArch: core:  7, cta: 2 initialized @(204773,0)
GPGPU-Sim PTX: 38600000 instructions simulated : ctaid=(96,0,0) tid=(127,0,0)
GPGPU-Sim uArch: cycles simulated: 205500  inst.: 38649952 (ipc=188.1) sim_rate=319421 (inst/sec) elapsed = 0:0:02:01 / Wed May  1 12:45:20 2019
GPGPU-Sim PTX: 38700000 instructions simulated : ctaid=(69,0,0) tid=(127,0,0)
GPGPU-Sim uArch: Shader 13 finished CTA #2 (205542,0), 7 CTAs running
GPGPU-Sim uArch: core: 13, cta: 2 initialized @(205543,0)
GPGPU-Sim PTX: 38800000 instructions simulated : ctaid=(55,0,0) tid=(63,0,0)
[...]
dq_lat_table:0 	0 	0 	0 	0 	0 	0 	0 	0 	0 	0 	0 	0 	0 	0 	0 	0 	0 	0 	0 	0 	0 	0 	0 	0 	0 	0 	0 	0 	0 	0 	0 	
mf_lat_table:0 	0 	0 	0 	0 	0 	0 	0 	3922 	16209 	139901 	151591 	892 	0 	0 	0 	0 	0 	0 	0 	0 	0 	0 	0 	0 	0 	0 	0 	0 	0 	0 	0 	
icnt2mem_lat_table:0 	0 	0 	10423 	2687 	9371 	19860 	22938 	58513 	120287 	67302 	1254 	0 	0 	0 	0 	0 	0 	0 	0 	0 	0 	0 	0 	
icnt2sh_lat_table:0 	0 	0 	179460 	8053 	2 	0 	0 	0 	0 	0 	0 	413 	855 	1954 	3976 	8029 	15899 	32224 	61650 	0 	0 	0 	0 	
mf_lat_pw_table:0 	0 	0 	0 	0 	0 	0 	0 	29 	21 	803 	1210 	0 	0 	0 	0 	0 	0 	0 	0 	0 	0 	0 	0 	0 	0 	0 	0 	0 	0 	0 	0 	
maximum concurrent accesses to same row:
dram[0]:        26        26        16        14        20        20        32        42        14        10        26        32        32        30        20        24 
dram[1]:        20        26        14        14        22        20        32        40        14        16        26        28        32        30        18        20 
dram[2]:        26        26        14        20        28        24        32        40        10        20        28        30        32        30        18        22 
dram[3]:        26        26        16        14        20        28        32        38        12        14        28        24        32        30        18        20 
dram[4]:        26        26        14        20        20        22        42        32        20        26        28        28        30        30        16        24 
dram[5]:        26        26        14        16        20        24        36        34        20        16        22        32        30        30        18        18 
maximum service time to same row:
dram[0]:      6034      6207     10643      8926      5563      4522      4140      4266     13581     10893      4070      4355      4980      7373     12213      8323 
dram[1]:      4314      5946      9372      7661      5550      4150      4139      4196     12108      9906      3443      4983      6256      5551     10919      8241 
dram[2]:      3363      6479      8837      8216      4584      4125      4200      4250      8224     10314      4096      4466      5832      5881      7910      8071 
dram[3]:      5209      6753      9597      7827      4302      4160      4602      4221      7683      9584      4362      4403      7209      7206      7786      7930 
dram[4]:      7156      6524      9401      8644      4524      4096      4932      4128      8519     10341      4849      3886      5799      7653      8266      8263 
dram[5]:      6504      6984      7450      8799      4124      4119      4273      4106      9109      8185      4774      4429      9456      6506      8308      8505 
average row accesses per activate:
dram[0]:  1.499339  1.512684  1.513586  1.485677  1.514706  1.517241  1.553820  1.542819  1.509235  1.517241  1.524317  1.524317  1.520771  1.527880  1.527880  1.519761 
dram[1]:  1.492105  1.502653  1.490585  1.499003  1.508153  1.498677  1.540222  1.521783  1.504768  1.502298  1.508240  1.506254  1.509235  1.518248  1.508737  1.521783 
dram[2]:  1.516550  1.511170  1.496517  1.501498  1.518767  1.520107  1.526351  1.531972  1.501312  1.508737  1.526351  1.529412  1.518248  1.525333  1.517241  1.531459 
dram[3]:  1.489655  1.506649  1.495030  1.487636  1.490299  1.499009  1.523810  1.523810  1.484269  1.497382  1.503285  1.510730  1.496403  1.520771  1.496403  1.512727 
dram[4]:  1.514362  1.516734  1.499003  1.511052  1.513189  1.516043  1.535571  1.529412  1.507743  1.493960  1.507743  1.524825  1.510730  1.526351  1.517241  1.514730 
dram[5]:  1.502319  1.510667  1.499003  1.492064  1.509660  1.508480  1.523302  1.536086  1.499345  1.496892  1.519761  1.517745  1.509235  1.510231  1.501312  1.519256 
average row locality = 437509/289364 = 1.511968
number of total memory accesses made:
dram[0]:         0         0         0         0         0         0         0         0         0         0         0         0         0         0         0         0 
dram[1]:         0         0         0         0         0         0         0         0         0         0         0         0         0         0         0         0 
dram[2]:         0         0         0         0         0         0         0         0         0         0         0         0         0         0         0         0 
dram[3]:         0         0         0         0         0         0         0         0         0         0         0         0         0         0         0         0 
dram[4]:         0         0         0         0         0         0         0         0         0         0         0         0         0         0         0         0 
dram[5]:         0         0         0         0         0         0         0         0         0         0         0         0         0         0         0         0 
total accesses: 0
min_bank_accesses = 0!
min_chip_accesses = 0!
number of total read accesses:
dram[0]:      3251      3246      3232      3232      3242      3242      3264      3264      3264      3264      3264      3264      3264      3264      3264      3264 
dram[1]:      3250      3246      3232      3232      3242      3242      3264      3264      3264      3264      3264      3264      3264      3264      3264      3264 
dram[2]:      3250      3246      3232      3232      3242      3244      3264      3264      3264      3264      3264      3264      3264      3264      3264      3264 
dram[3]:      3250      3246      3232      3232      3242      3244      3264      3264      3264      3264      3264      3264      3264      3264      3264      3264 
dram[4]:      3248      3246      3232      3232      3242      3244      3264      3264      3264      3264      3264      3264      3264      3264      3264      3264 
dram[5]:      3248      3246      3232      3232      3242      3244      3264      3264      3264      3264      3264      3264      3264      3264      3264      3264 
total reads: 312509
bank skew: 3264/3232 = 1.01
chip skew: 52086/52084 = 1.00
number of total write accesses:
dram[0]:      1286      1286      1280      1280      1290      1290      1312      1312      1312      1312      1312      1312      1312      1312      1312      1312 
dram[1]:      1286      1286      1280      1280      1290      1290      1312      1312      1312      1312      1312      1312      1312      1312      1312      1312 
dram[2]:      1286      1286      1280      1280      1290      1292      1312      1312      1312      1312      1312      1312      1312      1312      1312      1312 
dram[3]:      1286      1286      1280      1280      1290      1292      1312      1312      1312      1312      1312      1312      1312      1312      1312      1312 
dram[4]:      1286      1286      1280      1280      1290      1292      1312      1312      1312      1312      1312      1312      1312      1312      1312      1312 
dram[5]:      1286      1286      1280      1280      1290      1292      1312      1312      1312      1312      1312      1312      1312      1312      1312      1312 
total reads: 125000
bank skew: 1312/1280 = 1.02
chip skew: 20834/20832 = 1.00
average mf latency per bank:
dram[0]:       1658      1774      1710      1801      1714      1825      1739      1864      1692      1801      1683      1793      1716      1808      1765      1899
dram[1]:       1156      1172      1182      1196      1210      1213      1218      1258      1173      1185      1170      1206      1208      1201      1248      1310
dram[2]:       1593      1681      1632      1707      1635      1726      1655      1781      1604      1714      1610      1697      1645      1728      1685      1812
dram[3]:       1161      1221      1193      1229      1186      1265      1241      1310      1171      1213      1206      1241      1205      1263      1256      1319
dram[4]:       1304      1418      1349      1453      1349      1454      1375      1531      1324      1419      1336      1427      1344      1501      1406      1513
dram[5]:       1408      1411      1439      1440      1456      1465      1456      1510      1424      1434      1427      1437      1440      1446      1499      1544
maximum mf latency per bank:
dram[0]:       5161      4430      5555      4860      4394      4976      5634      5140      5527      5137      4874      4601      5105      4765      4961      5395
dram[1]:       4312      3672      4185      3760      3911      4036      4226      5025      4219      3745      4319      3989      3854      4290      4059      5324
dram[2]:       5153      4642      5084      4515      5079      4773      5217      5823      4515      4787      4947      4689      5878      5644      5697      5159
dram[3]:       4566      4486      4087      4006      3903      4785      4605      4310      3760      3786      4278      4079      4079      3944      5324      4528
dram[4]:       5419      5144      4573      4975      5454      4582      4419      5201      4940      5049      4755      4891      4214      5981      5186      5200
dram[5]:       4569      4678      4455      4201      4453      4115      4309      4372      5044      4791      4656      4492      4503      4572      5303      4714

Number of Memory Banks Accessed per Memory Operation per Warp (from 0):
0	0	0	0	0	0	0	0	0	0	0	0	0	0	0	0	0	0	0	0	0	0	0	0	0	0	0	0	0	0	0	0	0	0	0	0	0	0	0	0	0	0	0	0	0	0	0	0	0	0	0	0	0	0	0	0	0	0	0	0	0	0	0	0	0	0	0	0	0	0	0	0	0	0	0	0	0	0	0	0	0	0	0	0	0	0	0	0	0	0	0	0	0	0	0	0	
Average # of Memory Banks Accessed per Memory Operation per Warp=-nan

position of mrq chosen
0	0	0	0	0	0	0	0	0	0	0	0	0	0	0	0	

average position of mrq chosen = -nan
Memory Partition 0: 
Cache L2_bank_000:
MSHR contents

Cache L2_bank_001:
MSHR contents

In Dram Latency Queue (total = 0): 
DRAM[0]: 16 bks, busW=1 BL=8 CL=12, tRRD=2 tCCD=6, tRCD=12 tRAS=28 tRP=12 tRC=40
n_cmd=1362842 n_nop=683538 n_act=47992 n_pre=47976 n_req=72917 n_rd=416680 n_write=166656 bw_util=0.8561
n_activity=1351567 dram_eff=0.8632
bk0: 26008a 688112i bk1: 25968a 655914i bk2: 25856a 642108i bk3: 25856a 605684i bk4: 25936a 576560i bk5: 25936a 554050i bk6: 26112a 515863i bk7: 26112a 443676i bk8: 26112a 663220i bk9: 26112a 640213i bk10: 26112a 626784i bk11: 26112a 597976i bk12: 26112a 573366i bk13: 26112a 540461i bk14: 26112a 495788i bk15: 26112a 441926i 
dram_util_bins: 0 0 0 0 0 0 0 0 0 0
dram_eff_bins: 0 0 0 0 0 0 0 0 0 0
mrqq: max=16 avg=15.7051
Memory Partition 1: 
Cache L2_bank_002:
MSHR contents

Cache L2_bank_003:
MSHR contents

In Dram Latency Queue (total = 0): 
DRAM[1]: 16 bks, busW=1 BL=8 CL=12, tRRD=2 tCCD=6, tRCD=12 tRAS=28 tRP=12 tRC=40
n_cmd=1362842 n_nop=682840 n_act=48345 n_pre=48329 n_req=72916 n_rd=416672 n_write=166656 bw_util=0.856
n_activity=1352462 dram_eff=0.8626
bk0: 26000a 682859i bk1: 25968a 658128i bk2: 25856a 632605i bk3: 25856a 615819i bk4: 25936a 579461i bk5: 25936a 552411i bk6: 26112a 501357i bk7: 26112a 453502i bk8: 26112a 674428i bk9: 26112a 641301i bk10: 26112a 636926i bk11: 26112a 597620i bk12: 26112a 571987i bk13: 26112a 539930i bk14: 26112a 487635i bk15: 26112a 437219i 
dram_util_bins: 0 0 0 0 0 0 0 0 0 0
dram_eff_bins: 0 0 0 0 0 0 0 0 0 0
mrqq: max=16 avg=15.335
Memory Partition 2: 
Cache L2_bank_004:
MSHR contents

Cache L2_bank_005:
MSHR contents

In Dram Latency Queue (total = 0): 
DRAM[2]: 16 bks, busW=1 BL=8 CL=12, tRRD=2 tCCD=6, tRCD=12 tRAS=28 tRP=12 tRC=40
n_cmd=1362842 n_nop=683394 n_act=48052 n_pre=48036 n_req=72920 n_rd=416688 n_write=166672 bw_util=0.8561
n_activity=1350917 dram_eff=0.8637
bk0: 26000a 687309i bk1: 25968a 654605i bk2: 25856a 622416i bk3: 25856a 600349i bk4: 25936a 576629i bk5: 25952a 548444i bk6: 26112a 513085i bk7: 26112a 437502i bk8: 26112a 684767i bk9: 26112a 636802i bk10: 26112a 636167i bk11: 26112a 592704i bk12: 26112a 570479i bk13: 26112a 539372i bk14: 26112a 505404i bk15: 26112a 430121i 
dram_util_bins: 0 0 0 0 0 0 0 0 0 0
dram_eff_bins: 0 0 0 0 0 0 0 0 0 0
mrqq: max=16 avg=15.6353
Memory Partition 3: 
Cache L2_bank_006:
MSHR contents

Cache L2_bank_007:
MSHR contents

In Dram Latency Queue (total = 0): 
DRAM[3]: 16 bks, busW=1 BL=8 CL=12, tRRD=2 tCCD=6, tRCD=12 tRAS=28 tRP=12 tRC=40
n_cmd=1362842 n_nop=682420 n_act=48539 n_pre=48523 n_req=72920 n_rd=416688 n_write=166672 bw_util=0.8561
n_activity=1352626 dram_eff=0.8626
bk0: 26000a 691190i bk1: 25968a 659914i bk2: 25856a 638452i bk3: 25856a 599344i bk4: 25936a 585564i bk5: 25952a 544617i bk6: 26112a 490102i bk7: 26112a 444443i bk8: 26112a 659863i bk9: 26112a 646880i bk10: 26112a 627706i bk11: 26112a 604241i bk12: 26112a 569824i bk13: 26112a 538888i bk14: 26112a 487618i bk15: 26112a 437181i 
dram_util_bins: 0 0 0 0 0 0 0 0 0 0
dram_eff_bins: 0 0 0 0 0 0 0 0 0 0
mrqq: max=16 avg=15.3381
Memory Partition 4: 
Cache L2_bank_008:
MSHR contents

Cache L2_bank_009:
MSHR contents

In Dram Latency Queue (total = 0): 
DRAM[4]: 16 bks, busW=1 BL=8 CL=12, tRRD=2 tCCD=6, tRCD=12 tRAS=28 tRP=12 tRC=40
n_cmd=1362842 n_nop=683244 n_act=48135 n_pre=48119 n_req=72918 n_rd=416672 n_write=166672 bw_util=0.8561
n_activity=1350986 dram_eff=0.8636
bk0: 25984a 696429i bk1: 25968a 665064i bk2: 25856a 633962i bk3: 25856a 602340i bk4: 25936a 586240i bk5: 25952a 546297i bk6: 26112a 503676i bk7: 26112a 441537i bk8: 26112a 678346i bk9: 26112a 642863i bk10: 26112a 627786i bk11: 26112a 595527i bk12: 26112a 565933i bk13: 26112a 525873i bk14: 26112a 497819i bk15: 26112a 441622i 
dram_util_bins: 0 0 0 0 0 0 0 0 0 0
dram_eff_bins: 0 0 0 0 0 0 0 0 0 0
mrqq: max=16 avg=15.3877
Memory Partition 5: 
Cache L2_bank_010:
MSHR contents
MSHR: tag=0x80f20d80, atomic=0 1 entries : 0x7f1d70ff1bd0 :  mf: uid=17919308, sid13:w03, part=5, addr=0x80f20d80, load , size=128, unknown  status = IN_PARTITION_DRAM (1032456), 

Cache L2_bank_011:
MSHR contents

In Dram Latency Queue (total = 0): 
DRAM[5]: 16 bks, busW=1 BL=8 CL=12, tRRD=2 tCCD=6, tRCD=12 tRAS=28 tRP=12 tRC=40
n_cmd=1362842 n_nop=682918 n_act=48301 n_pre=48285 n_req=72918 n_rd=416666 n_write=166672 bw_util=0.8561
n_activity=1353184 dram_eff=0.8622
bk0: 25984a 694966i bk1: 25968a 658133i bk2: 25856a 644514i bk3: 25856a 604278i bk4: 25936a 582493i bk5: 25952a 538776i bk6: 26112a 504424i bk7: 26112a 433075i bk8: 26112a 676321i bk9: 26112a 644474i bk10: 26106a 629616i bk11: 26112a 609726i bk12: 26112a 571919i bk13: 26112a 536605i bk14: 26112a 494854i bk15: 26112a 429017i 
dram_util_bins: 0 0 0 0 0 0 0 0 0 0
dram_eff_bins: 0 0 0 0 0 0 0 0 0 0
mrqq: max=16 avg=15.4778

========= L2 cache stats =========
L2_cache_bank[0]: Access = 26087, Miss = 26045, Miss_rate = 0.998, Pending_hits = 9, Reservation_fails = 103934
L2_cache_bank[1]: Access = 26040, Miss = 26040, Miss_rate = 1.000, Pending_hits = 0, Reservation_fails = 139857
L2_cache_bank[2]: Access = 26072, Miss = 26044, Miss_rate = 0.999, Pending_hits = 6, Reservation_fails = 6762
L2_cache_bank[3]: Access = 26040, Miss = 26040, Miss_rate = 1.000, Pending_hits = 0, Reservation_fails = 6874
L2_cache_bank[4]: Access = 26072, Miss = 26044, Miss_rate = 0.999, Pending_hits = 6, Reservation_fails = 70538
L2_cache_bank[5]: Access = 26042, Miss = 26042, Miss_rate = 1.000, Pending_hits = 0, Reservation_fails = 78585
L2_cache_bank[6]: Access = 26072, Miss = 26044, Miss_rate = 0.999, Pending_hits = 6, Reservation_fails = 17635
L2_cache_bank[7]: Access = 26042, Miss = 26042, Miss_rate = 1.000, Pending_hits = 0, Reservation_fails = 19623
L2_cache_bank[8]: Access = 26042, Miss = 26042, Miss_rate = 1.000, Pending_hits = 0, Reservation_fails = 31353
L2_cache_bank[9]: Access = 26042, Miss = 26042, Miss_rate = 1.000, Pending_hits = 0, Reservation_fails = 60860
L2_cache_bank[10]: Access = 26042, Miss = 26042, Miss_rate = 1.000, Pending_hits = 0, Reservation_fails = 7568
L2_cache_bank[11]: Access = 26042, Miss = 26042, Miss_rate = 1.000, Pending_hits = 0, Reservation_fails = 9659
L2_total_cache_accesses = 312635
L2_total_cache_misses = 312509
L2_total_cache_miss_rate = 0.9996
L2_total_cache_pending_hits = 27
L2_total_cache_reservation_fails = 553248
L2_total_cache_breakdown:
	L2_cache_stats_breakdown[GLOBAL_ACC_R][MISS] = 187500
	L2_cache_stats_breakdown[GLOBAL_ACC_R][RESERVATION_FAIL] = 328875
	L2_cache_stats_breakdown[CONST_ACC_R][HIT] = 11
	L2_cache_stats_breakdown[CONST_ACC_R][HIT_RESERVED] = 3
	L2_cache_stats_breakdown[CONST_ACC_R][MISS] = 1
	L2_cache_stats_breakdown[CONST_ACC_R][RESERVATION_FAIL] = 123
	L2_cache_stats_breakdown[GLOBAL_ACC_W][MISS] = 125000
	L2_cache_stats_breakdown[GLOBAL_ACC_W][RESERVATION_FAIL] = 222677
	L2_cache_stats_breakdown[INST_ACC_R][HIT] = 88
	L2_cache_stats_breakdown[INST_ACC_R][HIT_RESERVED] = 24
	L2_cache_stats_breakdown[INST_ACC_R][MISS] = 8
	L2_cache_stats_breakdown[INST_ACC_R][RESERVATION_FAIL] = 1573
L2_cache_data_port_util = 0.000
L2_cache_fill_port_util = 0.101

icnt_total_pkts_mem_to_simt=1063145
icnt_total_pkts_simt_to_mem=812635
LD_mem_lat_dist  0 0 0 0 0 0 0 0 0 0 0 0 0 0 0 0 0 0 0 0 0 0 0 0 0 0 0
ST_mem_lat_dist  0 0 0 0 0 0 0 0 0 0 0 0 0 0 0 0 0 0 0 0 0 0 0 0 0 0 0
----------------------------Interconnect-DETAILS--------------------------------
Class 0:
Packet latency average = 160.545
	minimum = 6
	maximum = 2315
Network latency average = 103.097
	minimum = 6
	maximum = 1958
Slowest packet = 3802
Flit latency average = 74.2761
	minimum = 6
	maximum = 1954
Slowest flit = 1750515
Fragmentation average = 2.77017
	minimum = 0
	maximum = 1447
Injected packet rate average = 0.0224301
	minimum = 0.0195543 (at node 7)
	maximum = 0.0252669 (at node 15)
Accepted packet rate average = 0.0224301
	minimum = 0.0195543 (at node 7)
	maximum = 0.0252669 (at node 15)
Injected flit rate average = 0.0672893
	minimum = 0.0508273 (at node 7)
	maximum = 0.0859513 (at node 15)
Accepted flit rate average= 0.0672893
	minimum = 0.0655756 (at node 16)
	maximum = 0.0707778 (at node 4)
Injected packet length average = 2.99995
Accepted packet length average = 2.99995
Total in-flight flits = 0 (0 measured)
====== Overall Traffic Statistics ======
====== Traffic class 0 ======
Packet latency average = 160.545 (1 samples)
	minimum = 6 (1 samples)
	maximum = 2315 (1 samples)
Network latency average = 103.097 (1 samples)
	minimum = 6 (1 samples)
	maximum = 1958 (1 samples)
Flit latency average = 74.2761 (1 samples)
	minimum = 6 (1 samples)
	maximum = 1954 (1 samples)
Fragmentation average = 2.77017 (1 samples)
	minimum = 0 (1 samples)
	maximum = 1447 (1 samples)
Injected packet rate average = 0.0224301 (1 samples)
	minimum = 0.0195543 (1 samples)
	maximum = 0.0252669 (1 samples)
Accepted packet rate average = 0.0224301 (1 samples)
	minimum = 0.0195543 (1 samples)
	maximum = 0.0252669 (1 samples)
Injected flit rate average = 0.0672893 (1 samples)
	minimum = 0.0508273 (1 samples)
	maximum = 0.0859513 (1 samples)
Accepted flit rate average = 0.0672893 (1 samples)
	minimum = 0.0655756 (1 samples)
	maximum = 0.0707778 (1 samples)
Injected packet size average = 2.99995 (1 samples)
Accepted packet size average = 2.99995 (1 samples)
Hops average = 1 (1 samples)
----------------------------END-of-Interconnect-DETAILS-------------------------


gpgpu_simulation_time = 0 days, 0 hrs, 9 min, 56 sec (596 sec)
gpgpu_simulation_rate = 328492 (inst/sec)
gpgpu_simulation_rate = 1732 (cycle/sec)
GPGPU-Sim: synchronize waiting for inactive GPU simulation
GPGPU-Sim API: Stream Manager State
GPGPU-Sim: detected inactive GPU simulation thread
Options count             : 4000000     
BlackScholesGPU() time    : 595794.937500 msec
Effective memory bandwidth: 0.000067 GB/s
Gigaoptions per second    : 0.000007     
Reading back GPU results...
Checking the results...
...running CPU calculations.
Comparing the results...
L1 norm: 1.729535E-07
Max absolute error: 1.192093E-05
TEST PASSED
Shutting down...
...releasing GPU memory.
...releasing CPU memory.
Shutdown done.
GPGPU-Sim: exit_simulation called
GPGPU-Sim: simulation thread signaled exit

Press ENTER to exit...
