

        *** GPGPU-Sim Simulator Version 3.2.2  [build 0] ***


GPGPU-Sim PTX: simulation mode 0 (can change with PTX_SIM_MODE_FUNC environment variable:
               1=functional simulation only, 0=detailed performance simulator)
GPGPU-Sim: Configuration options:

-network_mode                           1 # Interconnection network mode
-inter_config_file   config_fermi_islip.icnt # Interconnection network config file
-gpgpu_ptx_use_cuobjdump                    1 # Use cuobjdump to extract ptx and sass from binaries
-gpgpu_experimental_lib_support                    0 # Try to extract code from cuda libraries [Broken because of unknown cudaGetExportTable]
-gpgpu_ptx_convert_to_ptxplus                    0 # Convert SASS (native ISA) to ptxplus and run ptxplus
-gpgpu_ptx_force_max_capability                   20 # Force maximum compute capability
-gpgpu_ptx_inst_debug_to_file                    0 # Dump executed instructions' debug information to file
-gpgpu_ptx_inst_debug_file       inst_debug.txt # Executed instructions' debug output file
-gpgpu_ptx_inst_debug_thread_uid                    1 # Thread UID for executed instructions' debug output
-gpgpu_simd_model                       1 # 1 = post-dominator
-gpgpu_shader_core_pipeline              1536:32 # shader core pipeline config, i.e., {<nthread>:<warpsize>}
-gpgpu_tex_cache:l1  4:128:24,L:R:m:N:L,F:128:4,128:2 # per-shader L1 texture cache  (READ-ONLY) config  {<nsets>:<bsize>:<assoc>,<rep>:<wr>:<alloc>:<wr_alloc>,<mshr>:<N>:<merge>,<mq>:<rf>}
-gpgpu_const_cache:l1 64:64:2,L:R:f:N:L,A:2:32,4 # per-shader L1 constant memory cache  (READ-ONLY) config  {<nsets>:<bsize>:<assoc>,<rep>:<wr>:<alloc>:<wr_alloc>,<mshr>:<N>:<merge>,<mq>} 
-gpgpu_cache:il1     4:128:4,L:R:f:N:L,A:2:32,4 # shader L1 instruction cache config  {<nsets>:<bsize>:<assoc>,<rep>:<wr>:<alloc>:<wr_alloc>,<mshr>:<N>:<merge>,<mq>} 
-gpgpu_cache:dl1     32:128:8,L:L:m:N:H,A:32:8,8 # per-shader L1 data cache config  {<nsets>:<bsize>:<assoc>,<rep>:<wr>:<alloc>:<wr_alloc>,<mshr>:<N>:<merge>,<mq> | none}
-gpgpu_cache:dl1PrefL1                 none # per-shader L1 data cache config  {<nsets>:<bsize>:<assoc>,<rep>:<wr>:<alloc>:<wr_alloc>,<mshr>:<N>:<merge>,<mq> | none}
-gpgpu_cache:dl1PreShared                 none # per-shader L1 data cache config  {<nsets>:<bsize>:<assoc>,<rep>:<wr>:<alloc>:<wr_alloc>,<mshr>:<N>:<merge>,<mq> | none}
-gmem_skip_L1D                          0 # global memory access skip L1D cache (implements -Xptxas -dlcm=cg, default=no skip)
-gpgpu_perfect_mem                      0 # enable perfect memory mode (no cache miss)
-n_regfile_gating_group                    4 # group of lanes that should be read/written together)
-gpgpu_clock_gated_reg_file                    0 # enable clock gated reg file for power calculations
-gpgpu_clock_gated_lanes                    0 # enable clock gated lanes for power calculations
-gpgpu_shader_registers                32768 # Number of registers per shader core. Limits number of concurrent CTAs. (default 8192)
-gpgpu_shader_cta                       8 # Maximum number of concurrent CTAs in shader (default 8)
-gpgpu_num_cta_barriers                   16 # Maximum number of named barriers per CTA (default 16)
-gpgpu_n_clusters                      15 # number of processing clusters
-gpgpu_n_cores_per_cluster                    1 # number of simd cores per cluster
-gpgpu_n_cluster_ejection_buffer_size                    8 # number of packets in ejection buffer
-gpgpu_n_ldst_response_buffer_size                    2 # number of response packets in ld/st unit ejection buffer
-gpgpu_shmem_size                   16384 # Size of shared memory per shader core (default 16kB)
-gpgpu_shmem_size                   49152 # Size of shared memory per shader core (default 16kB)
-gpgpu_shmem_size_PrefL1                16384 # Size of shared memory per shader core (default 16kB)
-gpgpu_shmem_size_PrefShared                16384 # Size of shared memory per shader core (default 16kB)
-gpgpu_shmem_num_banks                   32 # Number of banks in the shared memory in each shader core (default 16)
-gpgpu_shmem_limited_broadcast                    0 # Limit shared memory to do one broadcast per cycle (default on)
-gpgpu_shmem_warp_parts                    1 # Number of portions a warp is divided into for shared memory bank conflict check 
-gpgpu_warpdistro_shader                   -1 # Specify which shader core to collect the warp size distribution from
-gpgpu_warp_issue_shader                    0 # Specify which shader core to collect the warp issue distribution from
-gpgpu_local_mem_map                    1 # Mapping from local memory space address to simulated GPU physical address space (default = enabled)
-gpgpu_num_reg_banks                   16 # Number of register banks (default = 8)
-gpgpu_reg_bank_use_warp_id                    0 # Use warp ID in mapping registers to banks (default = off)
-gpgpu_operand_collector_num_units_sp                    6 # number of collector units (default = 4)
-gpgpu_operand_collector_num_units_sfu                    8 # number of collector units (default = 4)
-gpgpu_operand_collector_num_units_mem                    2 # number of collector units (default = 2)
-gpgpu_operand_collector_num_units_gen                    0 # number of collector units (default = 0)
-gpgpu_operand_collector_num_in_ports_sp                    2 # number of collector unit in ports (default = 1)
-gpgpu_operand_collector_num_in_ports_sfu                    1 # number of collector unit in ports (default = 1)
-gpgpu_operand_collector_num_in_ports_mem                    1 # number of collector unit in ports (default = 1)
-gpgpu_operand_collector_num_in_ports_gen                    0 # number of collector unit in ports (default = 0)
-gpgpu_operand_collector_num_out_ports_sp                    2 # number of collector unit in ports (default = 1)
-gpgpu_operand_collector_num_out_ports_sfu                    1 # number of collector unit in ports (default = 1)
-gpgpu_operand_collector_num_out_ports_mem                    1 # number of collector unit in ports (default = 1)
-gpgpu_operand_collector_num_out_ports_gen                    0 # number of collector unit in ports (default = 0)
-gpgpu_coalesce_arch                   13 # Coalescing arch (default = 13, anything else is off for now)
-gpgpu_num_sched_per_core                    2 # Number of warp schedulers per core
-gpgpu_max_insn_issue_per_warp                    1 # Max number of instructions that can be issued per warp in one cycle by scheduler
-gpgpu_simt_core_sim_order                    1 # Select the simulation order of cores in a cluster (0=Fix, 1=Round-Robin)
-gpgpu_pipeline_widths        2,1,1,2,1,1,2 # Pipeline widths ID_OC_SP,ID_OC_SFU,ID_OC_MEM,OC_EX_SP,OC_EX_SFU,OC_EX_MEM,EX_WB
-gpgpu_num_sp_units                     2 # Number of SP units (default=1)
-gpgpu_num_sfu_units                    1 # Number of SF units (default=1)
-gpgpu_num_mem_units                    1 # Number if ldst units (default=1) WARNING: not hooked up to anything
-gpgpu_scheduler                      gto # Scheduler configuration: < lrr | gto | two_level_active > If two_level_active:<num_active_warps>:<inner_prioritization>:<outer_prioritization>For complete list of prioritization values see shader.h enum scheduler_prioritization_typeDefault: gto
-gpgpu_dram_scheduler                    1 # 0 = fifo, 1 = FR-FCFS (defaul)
-gpgpu_dram_partition_queues              8:8:8:8 # i2$:$2d:d2$:$2i
-l2_ideal                               0 # Use a ideal L2 cache that always hit
-gpgpu_cache:dl2     64:128:8,L:B:m:W:L,A:32:4,4:0,32 # unified banked L2 data cache config  {<nsets>:<bsize>:<assoc>,<rep>:<wr>:<alloc>:<wr_alloc>,<mshr>:<N>:<merge>,<mq>}
-gpgpu_cache:dl2_texture_only                    0 # L2 cache used for texture only
-gpgpu_n_mem                            6 # number of memory modules (e.g. memory controllers) in gpu
-gpgpu_n_sub_partition_per_mchannel                    2 # number of memory subpartition in each memory module
-gpgpu_n_mem_per_ctrlr                    2 # number of memory chips per memory controller
-gpgpu_memlatency_stat                   14 # track and display latency statistics 0x2 enables MC, 0x4 enables queue logs
-gpgpu_frfcfs_dram_sched_queue_size                   16 # 0 = unlimited (default); # entries per chip
-gpgpu_dram_return_queue_size                  116 # 0 = unlimited (default); # entries per chip
-gpgpu_dram_buswidth                    4 # default = 4 bytes (8 bytes per cycle at DDR)
-gpgpu_dram_burst_length                    8 # Burst length of each DRAM request (default = 4 data bus cycle)
-dram_data_command_freq_ratio                    4 # Frequency ratio between DRAM data bus and command bus (default = 2 times, i.e. DDR)
-gpgpu_dram_timing_opt nbk=16:CCD=2:RRD=6:RCD=12:RAS=28:RP=12:RC=40: CL=12:WL=4:CDLR=5:WR=12:nbkgrp=4:CCDL=3:RTPL=2 # DRAM timing parameters = {nbk:tCCD:tRRD:tRCD:tRAS:tRP:tRC:CL:WL:tCDLR:tWR:nbkgrp:tCCDL:tRTPL}
-rop_latency                          120 # ROP queue latency (default 85)
-dram_latency                         100 # DRAM latency (default 30)
-gpgpu_mem_addr_mapping dramid@8;00000000.00000000.00000000.00000000.0000RRRR.RRRRRRRR.BBBCCCCB.CCSSSSSS # mapping memory address to dram model {dramid@<start bit>;<memory address map>}
-gpgpu_mem_addr_test                    0 # run sweep test to check address mapping for aliased address
-gpgpu_mem_address_mask                    1 # 0 = old addressing mask, 1 = new addressing mask, 2 = new add. mask + flipped bank sel and chip sel bits
-gpuwattch_xml_file  gpuwattch_gtx480.xml # GPUWattch XML file
-power_simulation_enabled                    1 # Turn on power simulator (1=On, 0=Off)
-power_per_cycle_dump                    0 # Dump detailed power output each cycle
-power_trace_enabled                    0 # produce a file for the power trace (1=On, 0=Off)
-power_trace_zlevel                     6 # Compression level of the power trace output log (0=no comp, 9=highest)
-steady_power_levels_enabled                    0 # produce a file for the steady power levels (1=On, 0=Off)
-steady_state_definition                  8:4 # allowed deviation:number of samples
-gpgpu_max_cycle                        0 # terminates gpu simulation early (0 = no limit)
-gpgpu_max_insn                         0 # terminates gpu simulation early (0 = no limit)
-gpgpu_max_cta                          0 # terminates gpu simulation early (0 = no limit)
-gpgpu_runtime_stat                   500 # display runtime statistics such as dram utilization {<freq>:<flag>}
-liveness_message_freq                    1 # Minimum number of seconds between simulation liveness messages (0 = always print)
-gpgpu_flush_l1_cache                    0 # Flush L1 cache at the end of each kernel call
-gpgpu_flush_l2_cache                    0 # Flush L2 cache at the end of each kernel call
-gpgpu_deadlock_detect                    1 # Stop the simulation at deadlock (1=on (default), 0=off)
-gpgpu_ptx_instruction_classification                    0 # if enabled will classify ptx instruction types per kernel (Max 255 kernels now)
-gpgpu_ptx_sim_mode                     0 # Select between Performance (default) or Functional simulation (1)
-gpgpu_clock_domains 700.0:700.0:700.0:924.0 # Clock Domain Frequencies in MhZ {<Core Clock>:<ICNT Clock>:<L2 Clock>:<DRAM Clock>}
-gpgpu_max_concurrent_kernel                    8 # maximum kernels that can run concurrently on GPU
-gpgpu_cflog_interval                    0 # Interval between each snapshot in control flow logger
-visualizer_enabled                     0 # Turn on visualizer output (1=On, 0=Off)
-visualizer_outputfile                 NULL # Specifies the output log file for visualizer
-visualizer_zlevel                      6 # Compression level of the visualizer output log (0=no comp, 9=highest)
-trace_enabled                          0 # Turn on traces
-trace_components                    none # comma seperated list of traces to enable. Complete list found in trace_streams.tup. Default none
-trace_sampling_core                    0 # The core which is printed using CORE_DPRINTF. Default 0
-trace_sampling_memory_partition                   -1 # The memory partition which is printed using MEMPART_DPRINTF. Default -1 (i.e. all)
-enable_ptx_file_line_stats                    1 # Turn on PTX source line statistic profiling. (1 = On)
-ptx_line_stats_filename gpgpu_inst_stats.txt # Output file for PTX source line statistics.
-save_embedded_ptx                      0 # saves ptx files embedded in binary as <n>.ptx
-keep                                   0 # keep intermediate files created by GPGPU-Sim when interfacing with external programs
-gpgpu_ptx_save_converted_ptxplus                    0 # Saved converted ptxplus to a file
-ptx_opcode_latency_int         4,13,4,5,145 # Opcode latencies for integers <ADD,MAX,MUL,MAD,DIV>Default 1,1,19,25,145
-ptx_opcode_latency_fp          4,13,4,5,39 # Opcode latencies for single precision floating points <ADD,MAX,MUL,MAD,DIV>Default 1,1,1,1,30
-ptx_opcode_latency_dp         8,19,8,8,330 # Opcode latencies for double precision floating points <ADD,MAX,MUL,MAD,DIV>Default 8,8,8,8,335
-ptx_opcode_initiation_int            1,2,2,1,8 # Opcode initiation intervals for integers <ADD,MAX,MUL,MAD,DIV>Default 1,1,4,4,32
-ptx_opcode_initiation_fp            1,2,1,1,4 # Opcode initiation intervals for single precision floating points <ADD,MAX,MUL,MAD,DIV>Default 1,1,1,1,5
-ptx_opcode_initiation_dp         8,16,8,8,130 # Opcode initiation intervals for double precision floating points <ADD,MAX,MUL,MAD,DIV>Default 8,8,8,8,130
DRAM Timing Options:
nbk                                    16 # number of banks
CCD                                     2 # column to column delay
RRD                                     6 # minimal delay between activation of rows in different banks
RCD                                    12 # row to column delay
RAS                                    28 # time needed to activate row
RP                                     12 # time needed to precharge (deactivate) row
RC                                     40 # row cycle time
CDLR                                    5 # switching from write to read (changes tWTR)
WR                                     12 # last data-in to row precharge
CL                                     12 # CAS latency
WL                                      4 # Write latency
nbkgrp                                  4 # number of bank groups
CCDL                                    3 # column to column delay between accesses to different bank groups
RTPL                                    2 # read to precharge delay between accesses to different bank groups
Total number of memory sub partition = 12
addr_dec_mask[CHIP]  = 0000000000000000 	high:64 low:0
addr_dec_mask[BK]    = 000000000000e100 	high:16 low:8
addr_dec_mask[ROW]   = 000000000fff0000 	high:28 low:16
addr_dec_mask[COL]   = 0000000000001eff 	high:13 low:0
addr_dec_mask[BURST] = 000000000000003f 	high:6 low:0
sub_partition_id_mask = 0000000000000100
GPGPU-Sim uArch: clock freqs: 700000000.000000:700000000.000000:700000000.000000:924000000.000000
GPGPU-Sim uArch: clock periods: 0.00000000142857142857:0.00000000142857142857:0.00000000142857142857:0.00000000108225108225
*** Initializing Memory Statistics ***
GPGPU-Sim uArch: interconnect node map (shaderID+MemID to icntID)
GPGPU-Sim uArch: Memory nodes ID start from index: 15
GPGPU-Sim uArch:    0   1   2   3   4
GPGPU-Sim uArch:    5   6   7   8   9
GPGPU-Sim uArch:   10  11  12  13  14
GPGPU-Sim uArch:   15  16  17  18  19
GPGPU-Sim uArch:   20  21  22  23  24
GPGPU-Sim uArch:   25  26
GPGPU-Sim uArch: interconnect node reverse map (icntID to shaderID+MemID)
GPGPU-Sim uArch: Memory nodes start from ID: 15
GPGPU-Sim uArch:    0   1   2   3   4
GPGPU-Sim uArch:    5   6   7   8   9
GPGPU-Sim uArch:   10  11  12  13  14
GPGPU-Sim uArch:   15  16  17  18  19
GPGPU-Sim uArch:   20  21  22  23  24
GPGPU-Sim uArch:   25  26
76921fba15ffd374ad2c9ad88216e3c5  /home/scratch/adwait/applications/benchmarks/CUDA/LIB/gpgpu_ptx_sim__LIB
GPGPU-Sim uArch: performance model initialization complete.
GPGPU-Sim PTX: __cudaRegisterFatBinary, fat_cubin_handle = 1, filename=libor.cu
self exe links to: /home/scratch/adwait/applications/benchmarks/CUDA/LIB/gpgpu_ptx_sim__LIB
Running md5sum using "md5sum /home/scratch/adwait/applications/benchmarks/CUDA/LIB/gpgpu_ptx_sim__LIB "
Running cuobjdump using "$CUDA_INSTALL_PATH/bin/cuobjdump -ptx -elf -sass /home/scratch/adwait/applications/benchmarks/CUDA/LIB/gpgpu_ptx_sim__LIB > _cuobjdump_complete_output_C22VcE"
Parsing file _cuobjdump_complete_output_C22VcE
######### cuobjdump parser ########
## Adding new section ELF
Adding arch: sm_20
Adding identifier: libor.cu
## Adding new section PTX
Adding ptx filename: _cuobjdump_1.ptx
Adding arch: sm_20
Adding identifier: libor.cu
Done parsing!!!
GPGPU-Sim PTX: __cudaRegisterFunction _Z29Pathcalc_Portfolio_KernelGPU2Pf : hostFun 0x0x40508c, fat_cubin_handle = 1
GPGPU-Sim PTX: allocating stack frame region for .param "__cudaparmf1__Z9path_calcPfS_" from 0x0 to 0x8
GPGPU-Sim PTX: allocating stack frame region for .param "__cudaparmf2__Z9path_calcPfS_" from 0x8 to 0x10
GPGPU-Sim PTX: allocating stack frame region for .param "__cudaparmf1__Z12path_calc_b1PfS_S_" from 0x0 to 0x8
GPGPU-Sim PTX: allocating stack frame region for .param "__cudaparmf2__Z12path_calc_b1PfS_S_" from 0x8 to 0x10
GPGPU-Sim PTX: allocating stack frame region for .param "__cudaparmf3__Z12path_calc_b1PfS_S_" from 0x10 to 0x18
GPGPU-Sim PTX: allocating stack frame region for .param "__cudaparmf1__Z12path_calc_b2PfS_S_" from 0x0 to 0x8
GPGPU-Sim PTX: allocating stack frame region for .param "__cudaparmf2__Z12path_calc_b2PfS_S_" from 0x8 to 0x10
GPGPU-Sim PTX: allocating stack frame region for .param "__cudaparmf3__Z12path_calc_b2PfS_S_" from 0x10 to 0x18
GPGPU-Sim PTX: allocating stack frame region for .param "__cudaretf__Z11portfolio_bPfS_" from 0x0 to 0x4
GPGPU-Sim PTX: allocating stack frame region for .param "__cudaparmf1__Z11portfolio_bPfS_" from 0x4 to 0xc
GPGPU-Sim PTX: allocating stack frame region for .param "__cudaparmf2__Z11portfolio_bPfS_" from 0xc to 0x14
GPGPU-Sim PTX: allocating stack frame region for .param "__cudaretf__Z9portfolioPf" from 0x0 to 0x4
GPGPU-Sim PTX: allocating stack frame region for .param "__cudaparmf1__Z9portfolioPf" from 0x4 to 0xc
GPGPU-Sim PTX: allocating constant region for "N" from 0x100 to 0x104 (global memory space) 1
GPGPU-Sim PTX: allocating constant region for "Nmat" from 0x104 to 0x108 (global memory space) 2
GPGPU-Sim PTX: allocating constant region for "delta" from 0x108 to 0x10c (global memory space) 3
GPGPU-Sim PTX: allocating constant region for "lambda" from 0x180 to 0x2c0 (global memory space) 4
GPGPU-Sim PTX: instruction assembly for function '_Z9path_calcPfS_'...   done.
GPGPU-Sim PTX: finding reconvergence points for '_Z9path_calcPfS_'...
GPGPU-Sim PTX: Finding dominators for '_Z9path_calcPfS_'...
GPGPU-Sim PTX: Finding immediate dominators for '_Z9path_calcPfS_'...
GPGPU-Sim PTX: Finding postdominators for '_Z9path_calcPfS_'...
GPGPU-Sim PTX: Finding immediate postdominators for '_Z9path_calcPfS_'...
GPGPU-Sim PTX: pre-decoding instructions for '_Z9path_calcPfS_'...
GPGPU-Sim PTX: reconvergence points for _Z9path_calcPfS_...
GPGPU-Sim PTX:  1 (potential) branch divergence @  PC=0x038 (_1.ptx:81) @%p1 bra $Lt_0_2306;
GPGPU-Sim PTX:    immediate post dominator      @  PC=0x218 (_1.ptx:153) ret;
GPGPU-Sim PTX:  2 (potential) branch divergence @  PC=0x0a8 (_1.ptx:99) @%p2 bra $Lt_0_3074;
GPGPU-Sim PTX:    immediate post dominator      @  PC=0x1f8 (_1.ptx:147) mov.s32 %r5, %r7;
GPGPU-Sim PTX:  3 (potential) branch divergence @  PC=0x1f0 (_1.ptx:145) @%p3 bra $Lt_0_3586;
GPGPU-Sim PTX:    immediate post dominator      @  PC=0x1f8 (_1.ptx:147) mov.s32 %r5, %r7;
GPGPU-Sim PTX:  4 (potential) branch divergence @  PC=0x210 (_1.ptx:150) @%p4 bra $Lt_0_2818;
GPGPU-Sim PTX:    immediate post dominator      @  PC=0x218 (_1.ptx:153) ret;
GPGPU-Sim PTX: ... end of reconvergence points for _Z9path_calcPfS_
GPGPU-Sim PTX: ... done pre-decoding instructions for '_Z9path_calcPfS_'.
GPGPU-Sim PTX: instruction assembly for function '_Z12path_calc_b1PfS_S_'...   done.
GPGPU-Sim PTX: finding reconvergence points for '_Z12path_calc_b1PfS_S_'...
GPGPU-Sim PTX: Finding dominators for '_Z12path_calc_b1PfS_S_'...
GPGPU-Sim PTX: Finding immediate dominators for '_Z12path_calc_b1PfS_S_'...
GPGPU-Sim PTX: Finding postdominators for '_Z12path_calc_b1PfS_S_'...
GPGPU-Sim PTX: Finding immediate postdominators for '_Z12path_calc_b1PfS_S_'...
GPGPU-Sim PTX: pre-decoding instructions for '_Z12path_calc_b1PfS_S_'...
GPGPU-Sim PTX: reconvergence points for _Z12path_calc_b1PfS_S_...
GPGPU-Sim PTX:  1 (potential) branch divergence @  PC=0x268 (_1.ptx:175) @%p1 bra $Lt_1_3330;
GPGPU-Sim PTX:    immediate post dominator      @  PC=0x2d0 (_1.ptx:192) ld.const.s32 %r6, [Nmat];
GPGPU-Sim PTX:  2 (potential) branch divergence @  PC=0x2c8 (_1.ptx:190) @%p2 bra $Lt_1_3842;
GPGPU-Sim PTX:    immediate post dominator      @  PC=0x2d0 (_1.ptx:192) ld.const.s32 %r6, [Nmat];
GPGPU-Sim PTX:  3 (potential) branch divergence @  PC=0x2e8 (_1.ptx:195) @%p3 bra $Lt_1_4354;
GPGPU-Sim PTX:    immediate post dominator      @  PC=0x4f8 (_1.ptx:274) ret;
GPGPU-Sim PTX:  4 (potential) branch divergence @  PC=0x350 (_1.ptx:212) @%p4 bra $Lt_1_5122;
GPGPU-Sim PTX:    immediate post dominator      @  PC=0x4d8 (_1.ptx:268) mov.s32 %r9, %r11;
GPGPU-Sim PTX:  5 (potential) branch divergence @  PC=0x4d0 (_1.ptx:266) @%p5 bra $Lt_1_5634;
GPGPU-Sim PTX:    immediate post dominator      @  PC=0x4d8 (_1.ptx:268) mov.s32 %r9, %r11;
GPGPU-Sim PTX:  6 (potential) branch divergence @  PC=0x4f0 (_1.ptx:271) @%p6 bra $Lt_1_4866;
GPGPU-Sim PTX:    immediate post dominator      @  PC=0x4f8 (_1.ptx:274) ret;
GPGPU-Sim PTX: ... end of reconvergence points for _Z12path_calc_b1PfS_S_
GPGPU-Sim PTX: ... done pre-decoding instructions for '_Z12path_calc_b1PfS_S_'.
GPGPU-Sim PTX: instruction assembly for function '_Z12path_calc_b2PfS_S_'...   done.
GPGPU-Sim PTX: finding reconvergence points for '_Z12path_calc_b2PfS_S_'...
GPGPU-Sim PTX: Finding dominators for '_Z12path_calc_b2PfS_S_'...
GPGPU-Sim PTX: Finding immediate dominators for '_Z12path_calc_b2PfS_S_'...
GPGPU-Sim PTX: Finding postdominators for '_Z12path_calc_b2PfS_S_'...
GPGPU-Sim PTX: Finding immediate postdominators for '_Z12path_calc_b2PfS_S_'...
GPGPU-Sim PTX: pre-decoding instructions for '_Z12path_calc_b2PfS_S_'...
GPGPU-Sim PTX: reconvergence points for _Z12path_calc_b2PfS_S_...
GPGPU-Sim PTX:  1 (potential) branch divergence @  PC=0x548 (_1.ptx:297) @%p1 bra $Lt_2_2306;
GPGPU-Sim PTX:    immediate post dominator      @  PC=0x730 (_1.ptx:368) ret;
GPGPU-Sim PTX:  2 (potential) branch divergence @  PC=0x580 (_1.ptx:306) @%p2 bra $Lt_2_3074;
GPGPU-Sim PTX:    immediate post dominator      @  PC=0x710 (_1.ptx:362) sub.s32 %r3, %r3, 1;
GPGPU-Sim PTX:  3 (potential) branch divergence @  PC=0x708 (_1.ptx:360) @%p3 bra $Lt_2_3586;
GPGPU-Sim PTX:    immediate post dominator      @  PC=0x710 (_1.ptx:362) sub.s32 %r3, %r3, 1;
GPGPU-Sim PTX:  4 (potential) branch divergence @  PC=0x728 (_1.ptx:365) @%p4 bra $Lt_2_2818;
GPGPU-Sim PTX:    immediate post dominator      @  PC=0x730 (_1.ptx:368) ret;
GPGPU-Sim PTX: ... end of reconvergence points for _Z12path_calc_b2PfS_S_
GPGPU-Sim PTX: ... done pre-decoding instructions for '_Z12path_calc_b2PfS_S_'.
GPGPU-Sim PTX: allocating constant region for "Nopt" from 0x2c0 to 0x2c4 (global memory space) 5
GPGPU-Sim PTX: allocating constant region for "maturities" from 0x300 to 0x33c (global memory space) 6
GPGPU-Sim PTX: allocating constant region for "swaprates" from 0x380 to 0x3bc (global memory space) 7
GPGPU-Sim PTX: allocating stack frame region for .local "__cuda___cuda_local_var_33501_9_non_const_B_16440" from 0x80 to 0x120
GPGPU-Sim PTX: allocating stack frame region for .local "__cuda___cuda_local_var_33501_16_non_const_S_176600" from 0x180 to 0x220
GPGPU-Sim PTX: allocating stack frame region for .local "__cuda___cuda_local_var_33501_23_non_const_B_b_336760" from 0x280 to 0x320
GPGPU-Sim PTX: allocating stack frame region for .local "__cuda___cuda_local_var_33501_32_non_const_S_b_496920" from 0x380 to 0x420
GPGPU-Sim PTX: instruction assembly for function '_Z11portfolio_bPfS_'...   done.
GPGPU-Sim PTX: finding reconvergence points for '_Z11portfolio_bPfS_'...
GPGPU-Sim PTX: Finding dominators for '_Z11portfolio_bPfS_'...
GPGPU-Sim PTX: Finding immediate dominators for '_Z11portfolio_bPfS_'...
GPGPU-Sim PTX: Finding postdominators for '_Z11portfolio_bPfS_'...
GPGPU-Sim PTX: Finding immediate postdominators for '_Z11portfolio_bPfS_'...
GPGPU-Sim PTX: pre-decoding instructions for '_Z11portfolio_bPfS_'...
GPGPU-Sim PTX: reconvergence points for _Z11portfolio_bPfS_...
GPGPU-Sim PTX:  1 (potential) branch divergence @  PC=0x780 (_1.ptx:397) @!%p1 bra $Lt_3_8962;
GPGPU-Sim PTX:    immediate post dominator      @  PC=0x868 (_1.ptx:433) @!%p1 bra $Lt_3_9986;
GPGPU-Sim PTX:  2 (potential) branch divergence @  PC=0x860 (_1.ptx:431) @%p2 bra $Lt_3_9474;
GPGPU-Sim PTX:    immediate post dominator      @  PC=0x868 (_1.ptx:433) @!%p1 bra $Lt_3_9986;
GPGPU-Sim PTX:  3 (potential) branch divergence @  PC=0x868 (_1.ptx:433) @!%p1 bra $Lt_3_9986;
GPGPU-Sim PTX:    immediate post dominator      @  PC=0x8e0 (_1.ptx:453) ld.const.s32 %r11, [Nopt];
GPGPU-Sim PTX:  4 (potential) branch divergence @  PC=0x8d8 (_1.ptx:451) @%p3 bra $Lt_3_10498;
GPGPU-Sim PTX:    immediate post dominator      @  PC=0x8e0 (_1.ptx:453) ld.const.s32 %r11, [Nopt];
GPGPU-Sim PTX:  5 (potential) branch divergence @  PC=0x8f8 (_1.ptx:456) @%p4 bra $Lt_3_17666;
GPGPU-Sim PTX:    immediate post dominator      @  PC=0xa80 (_1.ptx:515) sub.s32 %r17, %r3, 1;
GPGPU-Sim PTX:  6 (potential) branch divergence @  PC=0x9c8 (_1.ptx:485) @!%p5 bra $Lt_3_11778;
GPGPU-Sim PTX:    immediate post dominator      @  PC=0xa30 (_1.ptx:502) add.s32 %r14, %r14, 1;
GPGPU-Sim PTX:  7 (potential) branch divergence @  PC=0xa50 (_1.ptx:506) @%p6 bra $Lt_3_11522;
GPGPU-Sim PTX:    immediate post dominator      @  PC=0xa58 (_1.ptx:507) bra.uni $Lt_3_11010;
GPGPU-Sim PTX:  8 (potential) branch divergence @  PC=0xa58 (_1.ptx:507) bra.uni $Lt_3_11010;
GPGPU-Sim PTX:    immediate post dominator      @  PC=0xa80 (_1.ptx:515) sub.s32 %r17, %r3, 1;
GPGPU-Sim PTX:  9 (potential) branch divergence @  PC=0xa98 (_1.ptx:518) @%p7 bra $Lt_3_12546;
GPGPU-Sim PTX:    immediate post dominator      @  PC=0xc60 (_1.ptx:583) mov.s32 %r22, 0;
GPGPU-Sim PTX: 10 (potential) branch divergence @  PC=0xba0 (_1.ptx:555) @%p8 bra $Lt_3_13314;
GPGPU-Sim PTX:    immediate post dominator      @  PC=0xc20 (_1.ptx:574) sub.s32 %r6, %r6, 1;
GPGPU-Sim PTX: 11 (potential) branch divergence @  PC=0xc58 (_1.ptx:581) @%p9 bra $Lt_3_13058;
GPGPU-Sim PTX:    immediate post dominator      @  PC=0xc60 (_1.ptx:583) mov.s32 %r22, 0;
GPGPU-Sim PTX: 12 (potential) branch divergence @  PC=0xc70 (_1.ptx:585) @!%p10 bra $Lt_3_18178;
GPGPU-Sim PTX:    immediate post dominator      @  PC=0xd18 (_1.ptx:612) mul.f32 %f10, %f10, %f3;
GPGPU-Sim PTX: 13 (potential) branch divergence @  PC=0xd00 (_1.ptx:606) @%p11 bra $Lt_3_14594;
GPGPU-Sim PTX:    immediate post dominator      @  PC=0xd08 (_1.ptx:607) bra.uni $Lt_3_14082;
GPGPU-Sim PTX: 14 (potential) branch divergence @  PC=0xd08 (_1.ptx:607) bra.uni $Lt_3_14082;
GPGPU-Sim PTX:    immediate post dominator      @  PC=0xd18 (_1.ptx:612) mul.f32 %f10, %f10, %f3;
GPGPU-Sim PTX: 15 (potential) branch divergence @  PC=0xd20 (_1.ptx:613) @!%p10 bra $Lt_3_15106;
GPGPU-Sim PTX:    immediate post dominator      @  PC=0xdd8 (_1.ptx:641) mov.s32 %r14, %r1;
GPGPU-Sim PTX: 16 (potential) branch divergence @  PC=0xdd0 (_1.ptx:638) @%p12 bra $Lt_3_15618;
GPGPU-Sim PTX:    immediate post dominator      @  PC=0xdd8 (_1.ptx:641) mov.s32 %r14, %r1;
GPGPU-Sim PTX: 17 (potential) branch divergence @  PC=0xde8 (_1.ptx:643) @%p13 bra $Lt_3_16130;
GPGPU-Sim PTX:    immediate post dominator      @  PC=0xe50 (_1.ptx:661) mov.f32 %f54, %f10;
GPGPU-Sim PTX: 18 (potential) branch divergence @  PC=0xe48 (_1.ptx:658) @%p14 bra $Lt_3_16642;
GPGPU-Sim PTX:    immediate post dominator      @  PC=0xe50 (_1.ptx:661) mov.f32 %f54, %f10;
GPGPU-Sim PTX: ... end of reconvergence points for _Z11portfolio_bPfS_
GPGPU-Sim PTX: ... done pre-decoding instructions for '_Z11portfolio_bPfS_'.
GPGPU-Sim PTX: allocating stack frame region for .local "__cuda___cuda_local_var_33564_27_non_const_B_01080" from 0x80 to 0x120
GPGPU-Sim PTX: allocating stack frame region for .local "__cuda___cuda_local_var_33564_34_non_const_S_1601240" from 0x180 to 0x220
GPGPU-Sim PTX: instruction assembly for function '_Z9portfolioPf'...   done.
GPGPU-Sim PTX: finding reconvergence points for '_Z9portfolioPf'...
GPGPU-Sim PTX: Finding dominators for '_Z9portfolioPf'...
GPGPU-Sim PTX: Finding immediate dominators for '_Z9portfolioPf'...
GPGPU-Sim PTX: Finding postdominators for '_Z9portfolioPf'...
GPGPU-Sim PTX: Finding immediate postdominators for '_Z9portfolioPf'...
GPGPU-Sim PTX: pre-decoding instructions for '_Z9portfolioPf'...
GPGPU-Sim PTX: reconvergence points for _Z9portfolioPf...
GPGPU-Sim PTX:  1 (potential) branch divergence @  PC=0xe90 (_1.ptx:684) @%p1 bra $Lt_4_4098;
GPGPU-Sim PTX:    immediate post dominator      @  PC=0xf90 (_1.ptx:723) cvta.local.u64 %rd3, __cuda___cuda_local_var_33564_27_non_const_B_01080;
GPGPU-Sim PTX:  2 (potential) branch divergence @  PC=0xf88 (_1.ptx:721) @%p2 bra $Lt_4_4610;
GPGPU-Sim PTX:    immediate post dominator      @  PC=0xf90 (_1.ptx:723) cvta.local.u64 %rd3, __cuda___cuda_local_var_33564_27_non_const_B_01080;
GPGPU-Sim PTX:  3 (potential) branch divergence @  PC=0xfb8 (_1.ptx:728) @%p3 bra $Lt_4_7426;
GPGPU-Sim PTX:    immediate post dominator      @  PC=0x10d0 (_1.ptx:769) mov.u32 %r13, 0;
GPGPU-Sim PTX:  4 (potential) branch divergence @  PC=0x10b8 (_1.ptx:764) @%p5 bra $Lt_4_5634;
GPGPU-Sim PTX:    immediate post dominator      @  PC=0x10c0 (_1.ptx:765) bra.uni $Lt_4_5122;
GPGPU-Sim PTX:  5 (potential) branch divergence @  PC=0x10c0 (_1.ptx:765) bra.uni $Lt_4_5122;
GPGPU-Sim PTX:    immediate post dominator      @  PC=0x10d0 (_1.ptx:769) mov.u32 %r13, 0;
GPGPU-Sim PTX:  6 (potential) branch divergence @  PC=0x10e0 (_1.ptx:771) @%p6 bra $Lt_4_7682;
GPGPU-Sim PTX:    immediate post dominator      @  PC=0x1188 (_1.ptx:798) mul.f32 %f16, %f6, %f3;
GPGPU-Sim PTX:  7 (potential) branch divergence @  PC=0x1170 (_1.ptx:792) @%p7 bra $Lt_4_6658;
GPGPU-Sim PTX:    immediate post dominator      @  PC=0x1178 (_1.ptx:793) bra.uni $Lt_4_6146;
GPGPU-Sim PTX:  8 (potential) branch divergence @  PC=0x1178 (_1.ptx:793) bra.uni $Lt_4_6146;
GPGPU-Sim PTX:    immediate post dominator      @  PC=0x1188 (_1.ptx:798) mul.f32 %f16, %f6, %f3;
GPGPU-Sim PTX: ... end of reconvergence points for _Z9portfolioPf
GPGPU-Sim PTX: ... done pre-decoding instructions for '_Z9portfolioPf'.
GPGPU-Sim PTX: allocating stack frame region for .local "__cuda___cuda_local_var_33501_32_non_const_S_b_161416" from 0x0 to 0xa0
GPGPU-Sim PTX: allocating stack frame region for .local "__cuda___cuda_local_var_33501_16_non_const_S_1761576" from 0x100 to 0x1a0
GPGPU-Sim PTX: allocating stack frame region for .local "__cuda___cuda_local_var_33602_16_non_const_L2_3361736" from 0x200 to 0x3540
GPGPU-Sim PTX: allocating stack frame region for .local "__cuda___cuda_local_var_33501_23_non_const_B_b_1345614856" from 0x3580 to 0x3620
GPGPU-Sim PTX: allocating stack frame region for .local "__cuda___cuda_local_var_33501_9_non_const_B_1361615016" from 0x3680 to 0x3720
GPGPU-Sim PTX: allocating stack frame region for .local "__cuda___cuda_local_var_33602_26_non_const_z_1377615176" from 0x3780 to 0x38c0
GPGPU-Sim PTX: allocating stack frame region for .local "__cuda___cuda_local_var_33602_9_non_const_L_1409615496" from 0x3900 to 0x3a40
GPGPU-Sim PTX: instruction assembly for function '_Z28Pathcalc_Portfolio_KernelGPUPfS_'...   done.
GPGPU-Sim PTX: finding reconvergence points for '_Z28Pathcalc_Portfolio_KernelGPUPfS_'...
GPGPU-Sim PTX: Finding dominators for '_Z28Pathcalc_Portfolio_KernelGPUPfS_'...
GPGPU-Sim PTX: Finding immediate dominators for '_Z28Pathcalc_Portfolio_KernelGPUPfS_'...
GPGPU-Sim PTX: Finding postdominators for '_Z28Pathcalc_Portfolio_KernelGPUPfS_'...
GPGPU-Sim PTX: Finding immediate postdominators for '_Z28Pathcalc_Portfolio_KernelGPUPfS_'...
GPGPU-Sim PTX: pre-decoding instructions for '_Z28Pathcalc_Portfolio_KernelGPUPfS_'...
GPGPU-Sim PTX: reconvergence points for _Z28Pathcalc_Portfolio_KernelGPUPfS_...
GPGPU-Sim PTX:  1 (potential) branch divergence @  PC=0x11e0 (_1.ptx:831) @%p1 bra $Lt_5_16130;
GPGPU-Sim PTX:    immediate post dominator      @  PC=0x1e48 (_1.ptx:1310) exit;
GPGPU-Sim PTX:  2 (potential) branch divergence @  PC=0x1320 (_1.ptx:873) @!%p2 bra $Lt_5_17922;
GPGPU-Sim PTX:    immediate post dominator      @  PC=0x1400 (_1.ptx:911) @!%p3 bra $Lt_5_18946;
GPGPU-Sim PTX:  3 (potential) branch divergence @  PC=0x1390 (_1.ptx:891) @%p9 bra $Lt_5_17410;
GPGPU-Sim PTX:    immediate post dominator      @  PC=0x1398 (_1.ptx:894) @!%p2 bra $Lt_5_17922;
GPGPU-Sim PTX:  4 (potential) branch divergence @  PC=0x1398 (_1.ptx:894) @!%p2 bra $Lt_5_17922;
GPGPU-Sim PTX:    immediate post dominator      @  PC=0x1400 (_1.ptx:911) @!%p3 bra $Lt_5_18946;
GPGPU-Sim PTX:  5 (potential) branch divergence @  PC=0x13f8 (_1.ptx:909) @%p10 bra $Lt_5_18434;
GPGPU-Sim PTX:    immediate post dominator      @  PC=0x1400 (_1.ptx:911) @!%p3 bra $Lt_5_18946;
GPGPU-Sim PTX:  6 (potential) branch divergence @  PC=0x1400 (_1.ptx:911) @!%p3 bra $Lt_5_18946;
GPGPU-Sim PTX:    immediate post dominator      @  PC=0x1610 (_1.ptx:989) @!%p6 bra $Lt_5_22018;
GPGPU-Sim PTX:  7 (potential) branch divergence @  PC=0x1438 (_1.ptx:921) @%p11 bra $Lt_5_19714;
GPGPU-Sim PTX:    immediate post dominator      @  PC=0x15f8 (_1.ptx:984) mov.s32 %r29, %r31;
GPGPU-Sim PTX:  8 (potential) branch divergence @  PC=0x15f0 (_1.ptx:982) @%p12 bra $Lt_5_20226;
GPGPU-Sim PTX:    immediate post dominator      @  PC=0x15f8 (_1.ptx:984) mov.s32 %r29, %r31;
GPGPU-Sim PTX:  9 (potential) branch divergence @  PC=0x1608 (_1.ptx:986) @%p13 bra $Lt_5_19458;
GPGPU-Sim PTX:    immediate post dominator      @  PC=0x1610 (_1.ptx:989) @!%p6 bra $Lt_5_22018;
GPGPU-Sim PTX: 10 (potential) branch divergence @  PC=0x1610 (_1.ptx:989) @!%p6 bra $Lt_5_22018;
GPGPU-Sim PTX:    immediate post dominator      @  PC=0x1770 (_1.ptx:1045) @!%p4 bra $Lt_5_33282;
GPGPU-Sim PTX: 11 (potential) branch divergence @  PC=0x16f0 (_1.ptx:1023) @%p14 bra $Lt_5_21506;
GPGPU-Sim PTX:    immediate post dominator      @  PC=0x16f8 (_1.ptx:1025) @!%p6 bra $Lt_5_22018;
GPGPU-Sim PTX: 12 (potential) branch divergence @  PC=0x16f8 (_1.ptx:1025) @!%p6 bra $Lt_5_22018;
GPGPU-Sim PTX:    immediate post dominator      @  PC=0x1770 (_1.ptx:1045) @!%p4 bra $Lt_5_33282;
GPGPU-Sim PTX: 13 (potential) branch divergence @  PC=0x1768 (_1.ptx:1043) @%p15 bra $Lt_5_22530;
GPGPU-Sim PTX:    immediate post dominator      @  PC=0x1770 (_1.ptx:1045) @!%p4 bra $Lt_5_33282;
GPGPU-Sim PTX: 14 (potential) branch divergence @  PC=0x1770 (_1.ptx:1045) @!%p4 bra $Lt_5_33282;
GPGPU-Sim PTX:    immediate post dominator      @  PC=0x18c0 (_1.ptx:1096) @!%p8 bra $Lt_5_24578;
GPGPU-Sim PTX: 15 (potential) branch divergence @  PC=0x1820 (_1.ptx:1070) @!%p16 bra $Lt_5_23810;
GPGPU-Sim PTX:    immediate post dominator      @  PC=0x1888 (_1.ptx:1087) add.s32 %r46, %r46, 1;
GPGPU-Sim PTX: 16 (potential) branch divergence @  PC=0x18a8 (_1.ptx:1091) @%p17 bra $Lt_5_23554;
GPGPU-Sim PTX:    immediate post dominator      @  PC=0x18b0 (_1.ptx:1092) bra.uni $Lt_5_23042;
GPGPU-Sim PTX: 17 (potential) branch divergence @  PC=0x18b0 (_1.ptx:1092) bra.uni $Lt_5_23042;
GPGPU-Sim PTX:    immediate post dominator      @  PC=0x18c0 (_1.ptx:1096) @!%p8 bra $Lt_5_24578;
GPGPU-Sim PTX: 18 (potential) branch divergence @  PC=0x18c0 (_1.ptx:1096) @!%p8 bra $Lt_5_24578;
GPGPU-Sim PTX:    immediate post dominator      @  PC=0x1a58 (_1.ptx:1155) @!%p3 bra $Lt_5_33794;
GPGPU-Sim PTX: 19 (potential) branch divergence @  PC=0x19b8 (_1.ptx:1131) @%p18 bra $Lt_5_25346;
GPGPU-Sim PTX:    immediate post dominator      @  PC=0x1a20 (_1.ptx:1147) sub.s32 %r40, %r40, 1;
GPGPU-Sim PTX: 20 (potential) branch divergence @  PC=0x1a50 (_1.ptx:1153) @%p19 bra $Lt_5_25090;
GPGPU-Sim PTX:    immediate post dominator      @  PC=0x1a58 (_1.ptx:1155) @!%p3 bra $Lt_5_33794;
GPGPU-Sim PTX: 21 (potential) branch divergence @  PC=0x1a58 (_1.ptx:1155) @!%p3 bra $Lt_5_33794;
GPGPU-Sim PTX:    immediate post dominator      @  PC=0x1b00 (_1.ptx:1182) mul.f32 %f30, %f30, %f24;
GPGPU-Sim PTX: 22 (potential) branch divergence @  PC=0x1ae8 (_1.ptx:1176) @%p20 bra $Lt_5_26626;
GPGPU-Sim PTX:    immediate post dominator      @  PC=0x1af0 (_1.ptx:1177) bra.uni $Lt_5_26114;
GPGPU-Sim PTX: 23 (potential) branch divergence @  PC=0x1af0 (_1.ptx:1177) bra.uni $Lt_5_26114;
GPGPU-Sim PTX:    immediate post dominator      @  PC=0x1b00 (_1.ptx:1182) mul.f32 %f30, %f30, %f24;
GPGPU-Sim PTX: 24 (potential) branch divergence @  PC=0x1b08 (_1.ptx:1183) @!%p3 bra $Lt_5_27138;
GPGPU-Sim PTX:    immediate post dominator      @  PC=0x1bb0 (_1.ptx:1209) mov.s32 %r46, %r10;
GPGPU-Sim PTX: 25 (potential) branch divergence @  PC=0x1ba8 (_1.ptx:1206) @%p21 bra $Lt_5_27650;
GPGPU-Sim PTX:    immediate post dominator      @  PC=0x1bb0 (_1.ptx:1209) mov.s32 %r46, %r10;
GPGPU-Sim PTX: 26 (potential) branch divergence @  PC=0x1bb8 (_1.ptx:1210) @!%p5 bra $Lt_5_28162;
GPGPU-Sim PTX:    immediate post dominator      @  PC=0x1c20 (_1.ptx:1228) st.global.f32 [%rd5+0], %f30;
GPGPU-Sim PTX: 27 (potential) branch divergence @  PC=0x1c18 (_1.ptx:1225) @%p22 bra $Lt_5_28674;
GPGPU-Sim PTX:    immediate post dominator      @  PC=0x1c20 (_1.ptx:1228) st.global.f32 [%rd5+0], %f30;
GPGPU-Sim PTX: 28 (potential) branch divergence @  PC=0x1c30 (_1.ptx:1231) @!%p7 bra $Lt_5_29186;
GPGPU-Sim PTX:    immediate post dominator      @  PC=0x1e08 (_1.ptx:1300) ld.local.f32 %f85, [__cuda___cuda_local_var_33602_9_non_const_L_1409615496+316];
GPGPU-Sim PTX: 29 (potential) branch divergence @  PC=0x1c58 (_1.ptx:1238) @%p23 bra $Lt_5_29954;
GPGPU-Sim PTX:    immediate post dominator      @  PC=0x1de8 (_1.ptx:1294) sub.s32 %r57, %r57, 1;
GPGPU-Sim PTX: 30 (potential) branch divergence @  PC=0x1de0 (_1.ptx:1292) @%p24 bra $Lt_5_30466;
GPGPU-Sim PTX:    immediate post dominator      @  PC=0x1de8 (_1.ptx:1294) sub.s32 %r57, %r57, 1;
GPGPU-Sim PTX: 31 (potential) branch divergence @  PC=0x1e00 (_1.ptx:1297) @%p25 bra $Lt_5_29698;
GPGPU-Sim PTX:    immediate post dominator      @  PC=0x1e08 (_1.ptx:1300) ld.local.f32 %f85, [__cuda___cuda_local_var_33602_9_non_const_L_1409615496+316];
GPGPU-Sim PTX: 32 (potential) branch divergence @  PC=0x1e40 (_1.ptx:1307) @%p26 bra $Lt_5_16642;
GPGPU-Sim PTX:    immediate post dominator      @  PC=0x1e48 (_1.ptx:1310) exit;
GPGPU-Sim PTX: ... end of reconvergence points for _Z28Pathcalc_Portfolio_KernelGPUPfS_
GPGPU-Sim PTX: ... done pre-decoding instructions for '_Z28Pathcalc_Portfolio_KernelGPUPfS_'.
GPGPU-Sim PTX: allocating stack frame region for .local "__cuda___cuda_local_var_33564_27_non_const_B_1615824" from 0x0 to 0xa0
GPGPU-Sim PTX: allocating stack frame region for .local "__cuda___cuda_local_var_33628_9_non_const_L_17615984" from 0x100 to 0x240
GPGPU-Sim PTX: allocating stack frame region for .local "__cuda___cuda_local_var_33564_34_non_const_S_49616304" from 0x280 to 0x320
GPGPU-Sim PTX: allocating stack frame region for .local "__cuda___cuda_local_var_33628_16_non_const_z_65616464" from 0x380 to 0x4c0
GPGPU-Sim PTX: instruction assembly for function '_Z29Pathcalc_Portfolio_KernelGPU2Pf'...   done.
GPGPU-Sim PTX: finding reconvergence points for '_Z29Pathcalc_Portfolio_KernelGPU2Pf'...
GPGPU-Sim PTX: Finding dominators for '_Z29Pathcalc_Portfolio_KernelGPU2Pf'...
GPGPU-Sim PTX: Finding immediate dominators for '_Z29Pathcalc_Portfolio_KernelGPU2Pf'...
GPGPU-Sim PTX: Finding postdominators for '_Z29Pathcalc_Portfolio_KernelGPU2Pf'...
GPGPU-Sim PTX: Finding immediate postdominators for '_Z29Pathcalc_Portfolio_KernelGPU2Pf'...
GPGPU-Sim PTX: pre-decoding instructions for '_Z29Pathcalc_Portfolio_KernelGPU2Pf'...
GPGPU-Sim PTX: reconvergence points for _Z29Pathcalc_Portfolio_KernelGPU2Pf...
GPGPU-Sim PTX:  1 (potential) branch divergence @  PC=0x1e90 (_1.ptx:1337) @%p1 bra $Lt_6_8194;
GPGPU-Sim PTX:    immediate post dominator      @  PC=0x2498 (_1.ptx:1571) exit;
GPGPU-Sim PTX:  2 (potential) branch divergence @  PC=0x1f60 (_1.ptx:1365) @!%p2 bra $Lt_6_8962;
GPGPU-Sim PTX:    immediate post dominator      @  PC=0x1fd8 (_1.ptx:1386) @!%p3 bra $Lt_6_9986;
GPGPU-Sim PTX:  3 (potential) branch divergence @  PC=0x1fd0 (_1.ptx:1383) @%p6 bra $Lt_6_9474;
GPGPU-Sim PTX:    immediate post dominator      @  PC=0x1fd8 (_1.ptx:1386) @!%p3 bra $Lt_6_9986;
GPGPU-Sim PTX:  4 (potential) branch divergence @  PC=0x1fd8 (_1.ptx:1386) @!%p3 bra $Lt_6_9986;
GPGPU-Sim PTX:    immediate post dominator      @  PC=0x21b0 (_1.ptx:1456) @!%p4 bra $Lt_6_12034;
GPGPU-Sim PTX:  5 (potential) branch divergence @  PC=0x2010 (_1.ptx:1396) @%p7 bra $Lt_6_10754;
GPGPU-Sim PTX:    immediate post dominator      @  PC=0x2198 (_1.ptx:1451) mov.s32 %r20, %r22;
GPGPU-Sim PTX:  6 (potential) branch divergence @  PC=0x2190 (_1.ptx:1449) @%p8 bra $Lt_6_11266;
GPGPU-Sim PTX:    immediate post dominator      @  PC=0x2198 (_1.ptx:1451) mov.s32 %r20, %r22;
GPGPU-Sim PTX:  7 (potential) branch divergence @  PC=0x21a8 (_1.ptx:1453) @%p9 bra $Lt_6_10498;
GPGPU-Sim PTX:    immediate post dominator      @  PC=0x21b0 (_1.ptx:1456) @!%p4 bra $Lt_6_12034;
GPGPU-Sim PTX:  8 (potential) branch divergence @  PC=0x21b0 (_1.ptx:1456) @!%p4 bra $Lt_6_12034;
GPGPU-Sim PTX:    immediate post dominator      @  PC=0x22a0 (_1.ptx:1493) @!%p5 bra $Lt_6_16642;
GPGPU-Sim PTX:  9 (potential) branch divergence @  PC=0x2298 (_1.ptx:1491) @%p10 bra $Lt_6_12546;
GPGPU-Sim PTX:    immediate post dominator      @  PC=0x22a0 (_1.ptx:1493) @!%p5 bra $Lt_6_16642;
GPGPU-Sim PTX: 10 (potential) branch divergence @  PC=0x22a0 (_1.ptx:1493) @!%p5 bra $Lt_6_16642;
GPGPU-Sim PTX:    immediate post dominator      @  PC=0x23b8 (_1.ptx:1534) @!%p3 bra $Lt_6_16898;
GPGPU-Sim PTX: 11 (potential) branch divergence @  PC=0x23a0 (_1.ptx:1529) @%p12 bra $Lt_6_13570;
GPGPU-Sim PTX:    immediate post dominator      @  PC=0x23a8 (_1.ptx:1530) bra.uni $Lt_6_13058;
GPGPU-Sim PTX: 12 (potential) branch divergence @  PC=0x23a8 (_1.ptx:1530) bra.uni $Lt_6_13058;
GPGPU-Sim PTX:    immediate post dominator      @  PC=0x23b8 (_1.ptx:1534) @!%p3 bra $Lt_6_16898;
GPGPU-Sim PTX: 13 (potential) branch divergence @  PC=0x23b8 (_1.ptx:1534) @!%p3 bra $Lt_6_16898;
GPGPU-Sim PTX:    immediate post dominator      @  PC=0x2460 (_1.ptx:1561) mul.f32 %f25, %f25, %f22;
GPGPU-Sim PTX: 14 (potential) branch divergence @  PC=0x2448 (_1.ptx:1555) @%p13 bra $Lt_6_14594;
GPGPU-Sim PTX:    immediate post dominator      @  PC=0x2450 (_1.ptx:1556) bra.uni $Lt_6_14082;
GPGPU-Sim PTX: 15 (potential) branch divergence @  PC=0x2450 (_1.ptx:1556) bra.uni $Lt_6_14082;
GPGPU-Sim PTX:    immediate post dominator      @  PC=0x2460 (_1.ptx:1561) mul.f32 %f25, %f25, %f22;
GPGPU-Sim PTX: 16 (potential) branch divergence @  PC=0x2490 (_1.ptx:1568) @%p14 bra $Lt_6_8706;
GPGPU-Sim PTX:    immediate post dominator      @  PC=0x2498 (_1.ptx:1571) exit;
GPGPU-Sim PTX: ... end of reconvergence points for _Z29Pathcalc_Portfolio_KernelGPU2Pf
GPGPU-Sim PTX: ... done pre-decoding instructions for '_Z29Pathcalc_Portfolio_KernelGPU2Pf'.
GPGPU-Sim PTX: finished parsing EMBEDDED .ptx file _1.ptx
Adding _cuobjdump_1.ptx with cubin handle 1
GPGPU-Sim PTX: extracting embedded .ptx to temporary file "_ptx_NMOVkm"
Running: cat _ptx_NMOVkm | sed 's/.version 1.5/.version 1.4/' | sed 's/, texmode_independent//' | sed 's/\(\.extern \.const\[1\] .b8 \w\+\)\[\]/\1\[1\]/' | sed 's/const\[.\]/const\[0\]/g' > _ptx2_FRs3v4
GPGPU-Sim PTX: generating ptxinfo using "$CUDA_INSTALL_PATH/bin/ptxas --gpu-name=sm_20 -v _ptx2_FRs3v4 --output-file  /dev/null 2> _ptx_NMOVkminfo"
GPGPU-Sim PTX: Kernel '_Z29Pathcalc_Portfolio_KernelGPU2Pf' : regs=33, lmem=4, smem=0, cmem=508
GPGPU-Sim PTX: Kernel '_Z28Pathcalc_Portfolio_KernelGPUPfS_' : regs=41, lmem=4, smem=0, cmem=516
GPGPU-Sim PTX: removing ptxinfo using "rm -f _ptx_NMOVkm _ptx2_FRs3v4 _ptx_NMOVkminfo"
GPGPU-Sim PTX: loading globals with explicit initializers... 
GPGPU-Sim PTX: finished loading globals (0 bytes total).
GPGPU-Sim PTX: loading constants with explicit initializers...  done.
GPGPU-Sim PTX: __cudaRegisterFunction _Z28Pathcalc_Portfolio_KernelGPUPfS_ : hostFun 0x0x40501e, fat_cubin_handle = 1
GPGPU-Sim PTX: __cudaRegisterVar: hostVar = 0x629400; deviceAddress = N; deviceName = N
GPGPU-Sim PTX: __cudaRegisterVar: Registering const memory space of 4 bytes
GPGPU-Sim PTX registering constant N (4 bytes) to name mapping
GPGPU-Sim PTX: __cudaRegisterVar: hostVar = 0x629404; deviceAddress = Nmat; deviceName = Nmat
GPGPU-Sim PTX: __cudaRegisterVar: Registering const memory space of 4 bytes
GPGPU-Sim PTX registering constant Nmat (4 bytes) to name mapping
GPGPU-Sim PTX: __cudaRegisterVar: hostVar = 0x629408; deviceAddress = Nopt; deviceName = Nopt
GPGPU-Sim PTX: __cudaRegisterVar: Registering const memory space of 4 bytes
GPGPU-Sim PTX registering constant Nopt (4 bytes) to name mapping
GPGPU-Sim PTX: __cudaRegisterVar: hostVar = 0x629420; deviceAddress = maturities; deviceName = maturities
GPGPU-Sim PTX: __cudaRegisterVar: Registering const memory space of 60 bytes
GPGPU-Sim PTX registering constant maturities (60 bytes) to name mapping
GPGPU-Sim PTX: __cudaRegisterVar: hostVar = 0x62945c; deviceAddress = delta; deviceName = delta
GPGPU-Sim PTX: __cudaRegisterVar: Registering const memory space of 4 bytes
GPGPU-Sim PTX registering constant delta (4 bytes) to name mapping
GPGPU-Sim PTX: __cudaRegisterVar: hostVar = 0x629460; deviceAddress = swaprates; deviceName = swaprates
GPGPU-Sim PTX: __cudaRegisterVar: Registering const memory space of 60 bytes
GPGPU-Sim PTX registering constant swaprates (60 bytes) to name mapping
GPGPU-Sim PTX: __cudaRegisterVar: hostVar = 0x6294a0; deviceAddress = lambda; deviceName = lambda
GPGPU-Sim PTX: __cudaRegisterVar: Registering const memory space of 320 bytes
GPGPU-Sim PTX registering constant lambda (320 bytes) to name mapping
GPGPU-Sim PTX: cudaMemcpyToSymbol: symbol = 0x629400
GPGPU-Sim PTX: starting gpgpu_ptx_sim_memcpy_symbol with hostVar 0x0x629400
GPGPU-Sim PTX: gpgpu_ptx_sim_memcpy_symbol: Found PTX symbol w/ hostVar=0x629400
GPGPU-Sim PTX: gpgpu_ptx_sim_memcpy_symbol: copying const memory 4 bytes  to  symbol N+0 @0x100 ...
GPGPU-Sim PTX: cudaMemcpyToSymbol: symbol = 0x629404
GPGPU-Sim PTX: starting gpgpu_ptx_sim_memcpy_symbol with hostVar 0x0x629404
GPGPU-Sim PTX: gpgpu_ptx_sim_memcpy_symbol: Found PTX symbol w/ hostVar=0x629404
GPGPU-Sim PTX: gpgpu_ptx_sim_memcpy_symbol: copying const memory 4 bytes  to  symbol Nmat+0 @0x104 ...
GPGPU-Sim PTX: cudaMemcpyToSymbol: symbol = 0x629408
GPGPU-Sim PTX: starting gpgpu_ptx_sim_memcpy_symbol with hostVar 0x0x629408
GPGPU-Sim PTX: gpgpu_ptx_sim_memcpy_symbol: Found PTX symbol w/ hostVar=0x629408
GPGPU-Sim PTX: gpgpu_ptx_sim_memcpy_symbol: copying const memory 4 bytes  to  symbol Nopt+0 @0x2c0 ...
GPGPU-Sim PTX: cudaMemcpyToSymbol: symbol = 0x62945c
GPGPU-Sim PTX: starting gpgpu_ptx_sim_memcpy_symbol with hostVar 0x0x62945c
GPGPU-Sim PTX: gpgpu_ptx_sim_memcpy_symbol: Found PTX symbol w/ hostVar=0x62945c
GPGPU-Sim PTX: gpgpu_ptx_sim_memcpy_symbol: copying const memory 4 bytes  to  symbol delta+0 @0x108 ...
GPGPU-Sim PTX: cudaMemcpyToSymbol: symbol = 0x629420
GPGPU-Sim PTX: starting gpgpu_ptx_sim_memcpy_symbol with hostVar 0x0x629420
GPGPU-Sim PTX: gpgpu_ptx_sim_memcpy_symbol: Found PTX symbol w/ hostVar=0x629420
GPGPU-Sim PTX: gpgpu_ptx_sim_memcpy_symbol: copying const memory 60 bytes  to  symbol maturities+0 @0x300 ...
GPGPU-Sim PTX: cudaMemcpyToSymbol: symbol = 0x629460
GPGPU-Sim PTX: starting gpgpu_ptx_sim_memcpy_symbol with hostVar 0x0x629460
GPGPU-Sim PTX: gpgpu_ptx_sim_memcpy_symbol: Found PTX symbol w/ hostVar=0x629460
GPGPU-Sim PTX: gpgpu_ptx_sim_memcpy_symbol: copying const memory 60 bytes  to  symbol swaprates+0 @0x380 ...
GPGPU-Sim PTX: cudaMemcpyToSymbol: symbol = 0x6294a0
GPGPU-Sim PTX: starting gpgpu_ptx_sim_memcpy_symbol with hostVar 0x0x6294a0
GPGPU-Sim PTX: gpgpu_ptx_sim_memcpy_symbol: Found PTX symbol w/ hostVar=0x6294a0
GPGPU-Sim PTX: gpgpu_ptx_sim_memcpy_symbol: copying const memory 320 bytes  to  symbol lambda+0 @0x180 ...
GPGPU-Sim: synchronize waiting for inactive GPU simulation
GPGPU-Sim API: Stream Manager State
GPGPU-Sim: detected inactive GPU simulation thread

GPGPU-Sim PTX: cudaLaunch for 0x0x40508c (mode=performance simulation) on stream 0
GPGPU-Sim PTX: pushing kernel '_Z29Pathcalc_Portfolio_KernelGPU2Pf' to stream 0, gridDim= (64,1,1) blockDim = (64,1,1) 
kernel '_Z29Pathcalc_Portfolio_KernelGPU2Pf' transfer to GPU hardware scheduler
GPGPU-Sim uArch: Shader 1 bind to kernel 1 '_Z29Pathcalc_Portfolio_KernelGPU2Pf'
GPGPU-Sim uArch: CTA/core = 8, limited by: cta_limit
GPGPU-Sim uArch: core:  1, cta: 0 initialized @(1,0)
GPGPU-Sim uArch: Shader 2 bind to kernel 1 '_Z29Pathcalc_Portfolio_KernelGPU2Pf'
GPGPU-Sim uArch: core:  2, cta: 0 initialized @(1,0)
GPGPU-Sim uArch: Shader 3 bind to kernel 1 '_Z29Pathcalc_Portfolio_KernelGPU2Pf'
GPGPU-Sim uArch: core:  3, cta: 0 initialized @(1,0)
GPGPU-Sim uArch: Shader 4 bind to kernel 1 '_Z29Pathcalc_Portfolio_KernelGPU2Pf'
GPGPU-Sim uArch: core:  4, cta: 0 initialized @(1,0)
GPGPU-Sim uArch: Shader 5 bind to kernel 1 '_Z29Pathcalc_Portfolio_KernelGPU2Pf'
GPGPU-Sim uArch: core:  5, cta: 0 initialized @(1,0)
GPGPU-Sim uArch: Shader 6 bind to kernel 1 '_Z29Pathcalc_Portfolio_KernelGPU2Pf'
GPGPU-Sim uArch: core:  6, cta: 0 initialized @(1,0)
GPGPU-Sim uArch: Shader 7 bind to kernel 1 '_Z29Pathcalc_Portfolio_KernelGPU2Pf'
GPGPU-Sim uArch: core:  7, cta: 0 initialized @(1,0)
GPGPU-Sim uArch: Shader 8 bind to kernel 1 '_Z29Pathcalc_Portfolio_KernelGPU2Pf'
GPGPU-Sim uArch: core:  8, cta: 0 initialized @(1,0)
GPGPU-Sim uArch: Shader 9 bind to kernel 1 '_Z29Pathcalc_Portfolio_KernelGPU2Pf'
GPGPU-Sim uArch: core:  9, cta: 0 initialized @(1,0)
GPGPU-Sim uArch: Shader 10 bind to kernel 1 '_Z29Pathcalc_Portfolio_KernelGPU2Pf'
GPGPU-Sim uArch: core: 10, cta: 0 initialized @(1,0)
GPGPU-Sim uArch: Shader 11 bind to kernel 1 '_Z29Pathcalc_Portfolio_KernelGPU2Pf'
GPGPU-Sim uArch: core: 11, cta: 0 initialized @(1,0)
GPGPU-Sim uArch: Shader 12 bind to kernel 1 '_Z29Pathcalc_Portfolio_KernelGPU2Pf'
GPGPU-Sim uArch: core: 12, cta: 0 initialized @(1,0)
GPGPU-Sim uArch: Shader 13 bind to kernel 1 '_Z29Pathcalc_Portfolio_KernelGPU2Pf'
GPGPU-Sim uArch: core: 13, cta: 0 initialized @(1,0)
GPGPU-Sim uArch: Shader 14 bind to kernel 1 '_Z29Pathcalc_Portfolio_KernelGPU2Pf'
GPGPU-Sim uArch: core: 14, cta: 0 initialized @(1,0)
GPGPU-Sim uArch: Shader 0 bind to kernel 1 '_Z29Pathcalc_Portfolio_KernelGPU2Pf'
GPGPU-Sim uArch: core:  0, cta: 0 initialized @(1,0)
GPGPU-Sim uArch: core:  1, cta: 1 initialized @(2,0)
GPGPU-Sim uArch: core:  2, cta: 1 initialized @(2,0)
GPGPU-Sim uArch: core:  3, cta: 1 initialized @(2,0)
GPGPU-Sim uArch: core:  4, cta: 1 initialized @(2,0)
GPGPU-Sim uArch: core:  5, cta: 1 initialized @(2,0)
GPGPU-Sim uArch: core:  6, cta: 1 initialized @(2,0)
GPGPU-Sim uArch: core:  7, cta: 1 initialized @(2,0)
GPGPU-Sim uArch: core:  8, cta: 1 initialized @(2,0)
GPGPU-Sim uArch: core:  9, cta: 1 initialized @(2,0)
GPGPU-Sim uArch: core: 10, cta: 1 initialized @(2,0)
GPGPU-Sim uArch: core: 11, cta: 1 initialized @(2,0)
GPGPU-Sim uArch: core: 12, cta: 1 initialized @(2,0)
GPGPU-Sim uArch: core: 13, cta: 1 initialized @(2,0)
GPGPU-Sim uArch: core: 14, cta: 1 initialized @(2,0)
GPGPU-Sim uArch: core:  0, cta: 1 initialized @(2,0)
GPGPU-Sim uArch: core:  1, cta: 2 initialized @(3,0)
GPGPU-Sim uArch: core:  2, cta: 2 initialized @(3,0)
GPGPU-Sim uArch: core:  3, cta: 2 initialized @(3,0)
GPGPU-Sim uArch: core:  4, cta: 2 initialized @(3,0)
GPGPU-Sim uArch: core:  5, cta: 2 initialized @(3,0)
GPGPU-Sim uArch: core:  6, cta: 2 initialized @(3,0)
GPGPU-Sim uArch: core:  7, cta: 2 initialized @(3,0)
GPGPU-Sim uArch: core:  8, cta: 2 initialized @(3,0)
GPGPU-Sim uArch: core:  9, cta: 2 initialized @(3,0)
GPGPU-Sim uArch: core: 10, cta: 2 initialized @(3,0)
GPGPU-Sim uArch: core: 11, cta: 2 initialized @(3,0)
GPGPU-Sim uArch: core: 12, cta: 2 initialized @(3,0)
GPGPU-Sim uArch: core: 13, cta: 2 initialized @(3,0)
GPGPU-Sim uArch: core: 14, cta: 2 initialized @(3,0)
GPGPU-Sim uArch: core:  0, cta: 2 initialized @(3,0)
GPGPU-Sim uArch: core:  1, cta: 3 initialized @(4,0)
GPGPU-Sim uArch: core:  2, cta: 3 initialized @(4,0)
GPGPU-Sim uArch: core:  3, cta: 3 initialized @(4,0)
GPGPU-Sim uArch: core:  4, cta: 3 initialized @(4,0)
GPGPU-Sim uArch: core:  5, cta: 3 initialized @(4,0)
GPGPU-Sim uArch: core:  6, cta: 3 initialized @(4,0)
GPGPU-Sim uArch: core:  7, cta: 3 initialized @(4,0)
GPGPU-Sim uArch: core:  8, cta: 3 initialized @(4,0)
GPGPU-Sim uArch: core:  9, cta: 3 initialized @(4,0)
GPGPU-Sim uArch: core: 10, cta: 3 initialized @(4,0)
GPGPU-Sim uArch: core: 11, cta: 3 initialized @(4,0)
GPGPU-Sim uArch: core: 12, cta: 3 initialized @(4,0)
GPGPU-Sim uArch: core: 13, cta: 3 initialized @(4,0)
GPGPU-Sim uArch: core: 14, cta: 3 initialized @(4,0)
GPGPU-Sim uArch: core:  0, cta: 3 initialized @(4,0)
GPGPU-Sim uArch: core:  1, cta: 4 initialized @(5,0)
GPGPU-Sim uArch: core:  2, cta: 4 initialized @(5,0)
GPGPU-Sim uArch: core:  3, cta: 4 initialized @(5,0)
GPGPU-Sim uArch: core:  4, cta: 4 initialized @(5,0)
GPGPU-Sim uArch: cycles simulated: 500  inst.: 24576 (ipc=49.2) sim_rate=24576 (inst/sec) elapsed = 0:0:00:01 / Tue Apr 16 16:51:48 2019
GPGPU-Sim uArch: cycles simulated: 1000  inst.: 65536 (ipc=65.5) sim_rate=32768 (inst/sec) elapsed = 0:0:00:02 / Tue Apr 16 16:51:49 2019
GPGPU-Sim PTX: 100000 instructions simulated : ctaid=(41,0,0) tid=(31,0,0)
GPGPU-Sim PTX: 200000 instructions simulated : ctaid=(2,0,0) tid=(31,0,0)
GPGPU-Sim uArch: cycles simulated: 2500  inst.: 284864 (ipc=113.9) sim_rate=94954 (inst/sec) elapsed = 0:0:00:03 / Tue Apr 16 16:51:50 2019
GPGPU-Sim PTX: 300000 instructions simulated : ctaid=(0,0,0) tid=(31,0,0)
GPGPU-Sim uArch: cycles simulated: 3500  inst.: 351328 (ipc=100.4) sim_rate=87832 (inst/sec) elapsed = 0:0:00:04 / Tue Apr 16 16:51:51 2019
GPGPU-Sim PTX: 400000 instructions simulated : ctaid=(23,0,0) tid=(31,0,0)
GPGPU-Sim uArch: cycles simulated: 4500  inst.: 441344 (ipc=98.1) sim_rate=88268 (inst/sec) elapsed = 0:0:00:05 / Tue Apr 16 16:51:52 2019
GPGPU-Sim PTX: 500000 instructions simulated : ctaid=(17,0,0) tid=(31,0,0)
GPGPU-Sim uArch: cycles simulated: 5500  inst.: 546432 (ipc=99.4) sim_rate=91072 (inst/sec) elapsed = 0:0:00:06 / Tue Apr 16 16:51:53 2019
GPGPU-Sim PTX: 600000 instructions simulated : ctaid=(5,0,0) tid=(31,0,0)
GPGPU-Sim uArch: cycles simulated: 6500  inst.: 630624 (ipc=97.0) sim_rate=90089 (inst/sec) elapsed = 0:0:00:07 / Tue Apr 16 16:51:54 2019
GPGPU-Sim PTX: 700000 instructions simulated : ctaid=(11,0,0) tid=(31,0,0)
GPGPU-Sim uArch: cycles simulated: 8000  inst.: 774848 (ipc=96.9) sim_rate=96856 (inst/sec) elapsed = 0:0:00:08 / Tue Apr 16 16:51:55 2019
GPGPU-Sim PTX: 800000 instructions simulated : ctaid=(29,0,0) tid=(31,0,0)
GPGPU-Sim uArch: cycles simulated: 9000  inst.: 875264 (ipc=97.3) sim_rate=97251 (inst/sec) elapsed = 0:0:00:09 / Tue Apr 16 16:51:56 2019
GPGPU-Sim PTX: 900000 instructions simulated : ctaid=(16,0,0) tid=(31,0,0)
GPGPU-Sim uArch: cycles simulated: 9500  inst.: 926176 (ipc=97.5) sim_rate=92617 (inst/sec) elapsed = 0:0:00:10 / Tue Apr 16 16:51:57 2019
GPGPU-Sim PTX: 1000000 instructions simulated : ctaid=(17,0,0) tid=(31,0,0)
GPGPU-Sim uArch: cycles simulated: 10500  inst.: 1025536 (ipc=97.7) sim_rate=93230 (inst/sec) elapsed = 0:0:00:11 / Tue Apr 16 16:51:58 2019
GPGPU-Sim PTX: 1100000 instructions simulated : ctaid=(36,0,0) tid=(31,0,0)
GPGPU-Sim uArch: cycles simulated: 11500  inst.: 1120384 (ipc=97.4) sim_rate=93365 (inst/sec) elapsed = 0:0:00:12 / Tue Apr 16 16:51:59 2019
GPGPU-Sim PTX: 1200000 instructions simulated : ctaid=(14,0,0) tid=(63,0,0)
GPGPU-Sim uArch: cycles simulated: 12500  inst.: 1220992 (ipc=97.7) sim_rate=93922 (inst/sec) elapsed = 0:0:00:13 / Tue Apr 16 16:52:00 2019
GPGPU-Sim PTX: 1300000 instructions simulated : ctaid=(41,0,0) tid=(31,0,0)
GPGPU-Sim uArch: cycles simulated: 13500  inst.: 1327680 (ipc=98.3) sim_rate=94834 (inst/sec) elapsed = 0:0:00:14 / Tue Apr 16 16:52:01 2019
GPGPU-Sim PTX: 1400000 instructions simulated : ctaid=(53,0,0) tid=(31,0,0)
GPGPU-Sim uArch: cycles simulated: 14500  inst.: 1440416 (ipc=99.3) sim_rate=96027 (inst/sec) elapsed = 0:0:00:15 / Tue Apr 16 16:52:02 2019
GPGPU-Sim PTX: 1500000 instructions simulated : ctaid=(59,0,0) tid=(31,0,0)
GPGPU-Sim uArch: cycles simulated: 15500  inst.: 1551488 (ipc=100.1) sim_rate=96968 (inst/sec) elapsed = 0:0:00:16 / Tue Apr 16 16:52:03 2019
GPGPU-Sim PTX: 1600000 instructions simulated : ctaid=(63,0,0) tid=(31,0,0)
GPGPU-Sim uArch: cycles simulated: 16500  inst.: 1660352 (ipc=100.6) sim_rate=97667 (inst/sec) elapsed = 0:0:00:17 / Tue Apr 16 16:52:04 2019
GPGPU-Sim PTX: 1700000 instructions simulated : ctaid=(51,0,0) tid=(31,0,0)
GPGPU-Sim PTX: 1800000 instructions simulated : ctaid=(43,0,0) tid=(31,0,0)
GPGPU-Sim uArch: cycles simulated: 17500  inst.: 1787680 (ipc=102.2) sim_rate=99315 (inst/sec) elapsed = 0:0:00:18 / Tue Apr 16 16:52:05 2019
GPGPU-Sim uArch: cycles simulated: 18000  inst.: 1851168 (ipc=102.8) sim_rate=97429 (inst/sec) elapsed = 0:0:00:19 / Tue Apr 16 16:52:06 2019
GPGPU-Sim PTX: 1900000 instructions simulated : ctaid=(9,0,0) tid=(63,0,0)
GPGPU-Sim uArch: cycles simulated: 19000  inst.: 1978560 (ipc=104.1) sim_rate=98928 (inst/sec) elapsed = 0:0:00:20 / Tue Apr 16 16:52:07 2019
GPGPU-Sim PTX: 2000000 instructions simulated : ctaid=(31,0,0) tid=(31,0,0)
GPGPU-Sim PTX: 2100000 instructions simulated : ctaid=(59,0,0) tid=(31,0,0)
GPGPU-Sim uArch: cycles simulated: 20000  inst.: 2110976 (ipc=105.5) sim_rate=100522 (inst/sec) elapsed = 0:0:00:21 / Tue Apr 16 16:52:08 2019
GPGPU-Sim PTX: 2200000 instructions simulated : ctaid=(33,0,0) tid=(31,0,0)
GPGPU-Sim uArch: cycles simulated: 21000  inst.: 2246880 (ipc=107.0) sim_rate=102130 (inst/sec) elapsed = 0:0:00:22 / Tue Apr 16 16:52:09 2019
GPGPU-Sim PTX: 2300000 instructions simulated : ctaid=(38,0,0) tid=(31,0,0)
GPGPU-Sim uArch: cycles simulated: 22000  inst.: 2372672 (ipc=107.8) sim_rate=103159 (inst/sec) elapsed = 0:0:00:23 / Tue Apr 16 16:52:10 2019
GPGPU-Sim PTX: 2400000 instructions simulated : ctaid=(25,0,0) tid=(63,0,0)
GPGPU-Sim PTX: 2500000 instructions simulated : ctaid=(11,0,0) tid=(63,0,0)
GPGPU-Sim uArch: cycles simulated: 23000  inst.: 2511392 (ipc=109.2) sim_rate=104641 (inst/sec) elapsed = 0:0:00:24 / Tue Apr 16 16:52:11 2019
GPGPU-Sim PTX: 2600000 instructions simulated : ctaid=(3,0,0) tid=(63,0,0)
GPGPU-Sim uArch: cycles simulated: 24000  inst.: 2668448 (ipc=111.2) sim_rate=106737 (inst/sec) elapsed = 0:0:00:25 / Tue Apr 16 16:52:12 2019
GPGPU-Sim PTX: 2700000 instructions simulated : ctaid=(44,0,0) tid=(63,0,0)
GPGPU-Sim PTX: 2800000 instructions simulated : ctaid=(46,0,0) tid=(63,0,0)
GPGPU-Sim uArch: cycles simulated: 25000  inst.: 2806656 (ipc=112.3) sim_rate=107948 (inst/sec) elapsed = 0:0:00:26 / Tue Apr 16 16:52:13 2019
GPGPU-Sim PTX: 2900000 instructions simulated : ctaid=(28,0,0) tid=(31,0,0)
GPGPU-Sim uArch: cycles simulated: 25500  inst.: 2883360 (ipc=113.1) sim_rate=106791 (inst/sec) elapsed = 0:0:00:27 / Tue Apr 16 16:52:14 2019
GPGPU-Sim PTX: 3000000 instructions simulated : ctaid=(34,0,0) tid=(31,0,0)
GPGPU-Sim uArch: cycles simulated: 26500  inst.: 3040832 (ipc=114.7) sim_rate=108601 (inst/sec) elapsed = 0:0:00:28 / Tue Apr 16 16:52:15 2019
GPGPU-Sim PTX: 3100000 instructions simulated : ctaid=(39,0,0) tid=(31,0,0)
GPGPU-Sim PTX: 3200000 instructions simulated : ctaid=(19,0,0) tid=(63,0,0)
GPGPU-Sim uArch: cycles simulated: 27500  inst.: 3202112 (ipc=116.4) sim_rate=110417 (inst/sec) elapsed = 0:0:00:29 / Tue Apr 16 16:52:16 2019
GPGPU-Sim PTX: 3300000 instructions simulated : ctaid=(40,0,0) tid=(63,0,0)
GPGPU-Sim uArch: cycles simulated: 28500  inst.: 3358464 (ipc=117.8) sim_rate=111948 (inst/sec) elapsed = 0:0:00:30 / Tue Apr 16 16:52:17 2019
GPGPU-Sim PTX: 3400000 instructions simulated : ctaid=(58,0,0) tid=(63,0,0)
GPGPU-Sim PTX: 3500000 instructions simulated : ctaid=(18,0,0) tid=(31,0,0)
GPGPU-Sim uArch: cycles simulated: 29500  inst.: 3525280 (ipc=119.5) sim_rate=113718 (inst/sec) elapsed = 0:0:00:31 / Tue Apr 16 16:52:18 2019
GPGPU-Sim PTX: 3600000 instructions simulated : ctaid=(33,0,0) tid=(63,0,0)
GPGPU-Sim uArch: cycles simulated: 30000  inst.: 3604576 (ipc=120.2) sim_rate=112643 (inst/sec) elapsed = 0:0:00:32 / Tue Apr 16 16:52:19 2019
GPGPU-Sim PTX: 3700000 instructions simulated : ctaid=(17,0,0) tid=(63,0,0)
GPGPU-Sim PTX: 3800000 instructions simulated : ctaid=(4,0,0) tid=(63,0,0)
GPGPU-Sim uArch: cycles simulated: 31000  inst.: 3805952 (ipc=122.8) sim_rate=115331 (inst/sec) elapsed = 0:0:00:33 / Tue Apr 16 16:52:20 2019
GPGPU-Sim PTX: 3900000 instructions simulated : ctaid=(43,0,0) tid=(63,0,0)
GPGPU-Sim PTX: 4000000 instructions simulated : ctaid=(0,0,0) tid=(63,0,0)
GPGPU-Sim uArch: cycles simulated: 32000  inst.: 4041664 (ipc=126.3) sim_rate=118872 (inst/sec) elapsed = 0:0:00:34 / Tue Apr 16 16:52:21 2019
GPGPU-Sim PTX: 4100000 instructions simulated : ctaid=(56,0,0) tid=(63,0,0)
GPGPU-Sim PTX: 4200000 instructions simulated : ctaid=(6,0,0) tid=(31,0,0)
GPGPU-Sim PTX: 4300000 instructions simulated : ctaid=(52,0,0) tid=(31,0,0)
GPGPU-Sim uArch: cycles simulated: 33000  inst.: 4283936 (ipc=129.8) sim_rate=122398 (inst/sec) elapsed = 0:0:00:35 / Tue Apr 16 16:52:22 2019
GPGPU-Sim PTX: 4400000 instructions simulated : ctaid=(50,0,0) tid=(63,0,0)
GPGPU-Sim uArch: cycles simulated: 33500  inst.: 4393472 (ipc=131.1) sim_rate=122040 (inst/sec) elapsed = 0:0:00:36 / Tue Apr 16 16:52:23 2019
GPGPU-Sim PTX: 4500000 instructions simulated : ctaid=(25,0,0) tid=(31,0,0)
GPGPU-Sim uArch: cycles simulated: 34000  inst.: 4504128 (ipc=132.5) sim_rate=121733 (inst/sec) elapsed = 0:0:00:37 / Tue Apr 16 16:52:24 2019
GPGPU-Sim PTX: 4600000 instructions simulated : ctaid=(56,0,0) tid=(63,0,0)
GPGPU-Sim PTX: 4700000 instructions simulated : ctaid=(40,0,0) tid=(63,0,0)
GPGPU-Sim uArch: cycles simulated: 35000  inst.: 4745408 (ipc=135.6) sim_rate=124879 (inst/sec) elapsed = 0:0:00:38 / Tue Apr 16 16:52:25 2019
GPGPU-Sim PTX: 4800000 instructions simulated : ctaid=(14,0,0) tid=(31,0,0)
GPGPU-Sim uArch: cycles simulated: 35500  inst.: 4867232 (ipc=137.1) sim_rate=124800 (inst/sec) elapsed = 0:0:00:39 / Tue Apr 16 16:52:26 2019
GPGPU-Sim PTX: 4900000 instructions simulated : ctaid=(42,0,0) tid=(63,0,0)
GPGPU-Sim PTX: 5000000 instructions simulated : ctaid=(8,0,0) tid=(31,0,0)
GPGPU-Sim PTX: 5100000 instructions simulated : ctaid=(1,0,0) tid=(31,0,0)
GPGPU-Sim uArch: cycles simulated: 36500  inst.: 5111904 (ipc=140.1) sim_rate=127797 (inst/sec) elapsed = 0:0:00:40 / Tue Apr 16 16:52:27 2019
GPGPU-Sim PTX: 5200000 instructions simulated : ctaid=(41,0,0) tid=(31,0,0)
GPGPU-Sim uArch: cycles simulated: 37000  inst.: 5237696 (ipc=141.6) sim_rate=127748 (inst/sec) elapsed = 0:0:00:41 / Tue Apr 16 16:52:28 2019
GPGPU-Sim PTX: 5300000 instructions simulated : ctaid=(60,0,0) tid=(31,0,0)
GPGPU-Sim PTX: 5400000 instructions simulated : ctaid=(34,0,0) tid=(31,0,0)
GPGPU-Sim PTX: 5500000 instructions simulated : ctaid=(60,0,0) tid=(63,0,0)
GPGPU-Sim uArch: cycles simulated: 38000  inst.: 5490880 (ipc=144.5) sim_rate=130735 (inst/sec) elapsed = 0:0:00:42 / Tue Apr 16 16:52:29 2019
GPGPU-Sim PTX: 5600000 instructions simulated : ctaid=(44,0,0) tid=(31,0,0)
GPGPU-Sim uArch: cycles simulated: 38500  inst.: 5614592 (ipc=145.8) sim_rate=130571 (inst/sec) elapsed = 0:0:00:43 / Tue Apr 16 16:52:30 2019
GPGPU-Sim PTX: 5700000 instructions simulated : ctaid=(44,0,0) tid=(63,0,0)
GPGPU-Sim PTX: 5800000 instructions simulated : ctaid=(56,0,0) tid=(63,0,0)
GPGPU-Sim uArch: cycles simulated: 39500  inst.: 5857856 (ipc=148.3) sim_rate=133133 (inst/sec) elapsed = 0:0:00:44 / Tue Apr 16 16:52:31 2019
GPGPU-Sim PTX: 5900000 instructions simulated : ctaid=(51,0,0) tid=(63,0,0)
GPGPU-Sim PTX: 6000000 instructions simulated : ctaid=(8,0,0) tid=(63,0,0)
GPGPU-Sim uArch: cycles simulated: 40000  inst.: 5979776 (ipc=149.5) sim_rate=132883 (inst/sec) elapsed = 0:0:00:45 / Tue Apr 16 16:52:32 2019
GPGPU-Sim PTX: 6100000 instructions simulated : ctaid=(60,0,0) tid=(31,0,0)
GPGPU-Sim PTX: 6200000 instructions simulated : ctaid=(16,0,0) tid=(31,0,0)
GPGPU-Sim uArch: cycles simulated: 41000  inst.: 6226272 (ipc=151.9) sim_rate=135353 (inst/sec) elapsed = 0:0:00:46 / Tue Apr 16 16:52:33 2019
GPGPU-Sim PTX: 6300000 instructions simulated : ctaid=(27,0,0) tid=(63,0,0)
GPGPU-Sim uArch: cycles simulated: 41500  inst.: 6352096 (ipc=153.1) sim_rate=135150 (inst/sec) elapsed = 0:0:00:47 / Tue Apr 16 16:52:34 2019
GPGPU-Sim PTX: 6400000 instructions simulated : ctaid=(23,0,0) tid=(31,0,0)
GPGPU-Sim PTX: 6500000 instructions simulated : ctaid=(24,0,0) tid=(31,0,0)
GPGPU-Sim PTX: 6600000 instructions simulated : ctaid=(39,0,0) tid=(31,0,0)
GPGPU-Sim uArch: cycles simulated: 42500  inst.: 6601792 (ipc=155.3) sim_rate=137537 (inst/sec) elapsed = 0:0:00:48 / Tue Apr 16 16:52:35 2019
GPGPU-Sim PTX: 6700000 instructions simulated : ctaid=(0,0,0) tid=(63,0,0)
GPGPU-Sim uArch: cycles simulated: 43000  inst.: 6716640 (ipc=156.2) sim_rate=137074 (inst/sec) elapsed = 0:0:00:49 / Tue Apr 16 16:52:36 2019
GPGPU-Sim PTX: 6800000 instructions simulated : ctaid=(24,0,0) tid=(63,0,0)
GPGPU-Sim PTX: 6900000 instructions simulated : ctaid=(3,0,0) tid=(31,0,0)
GPGPU-Sim uArch: cycles simulated: 44000  inst.: 6958400 (ipc=158.1) sim_rate=139168 (inst/sec) elapsed = 0:0:00:50 / Tue Apr 16 16:52:37 2019
GPGPU-Sim PTX: 7000000 instructions simulated : ctaid=(45,0,0) tid=(63,0,0)
GPGPU-Sim PTX: 7100000 instructions simulated : ctaid=(50,0,0) tid=(63,0,0)
GPGPU-Sim uArch: cycles simulated: 44500  inst.: 7078624 (ipc=159.1) sim_rate=138796 (inst/sec) elapsed = 0:0:00:51 / Tue Apr 16 16:52:38 2019
GPGPU-Sim PTX: 7200000 instructions simulated : ctaid=(22,0,0) tid=(63,0,0)
GPGPU-Sim PTX: 7300000 instructions simulated : ctaid=(2,0,0) tid=(31,0,0)
GPGPU-Sim uArch: cycles simulated: 45500  inst.: 7330336 (ipc=161.1) sim_rate=140968 (inst/sec) elapsed = 0:0:00:52 / Tue Apr 16 16:52:39 2019
GPGPU-Sim PTX: 7400000 instructions simulated : ctaid=(12,0,0) tid=(63,0,0)
GPGPU-Sim PTX: 7500000 instructions simulated : ctaid=(41,0,0) tid=(31,0,0)
GPGPU-Sim PTX: 7600000 instructions simulated : ctaid=(15,0,0) tid=(63,0,0)
GPGPU-Sim uArch: cycles simulated: 46500  inst.: 7579584 (ipc=163.0) sim_rate=143011 (inst/sec) elapsed = 0:0:00:53 / Tue Apr 16 16:52:40 2019
GPGPU-Sim PTX: 7700000 instructions simulated : ctaid=(23,0,0) tid=(31,0,0)
GPGPU-Sim PTX: 7800000 instructions simulated : ctaid=(46,0,0) tid=(63,0,0)
GPGPU-Sim uArch: cycles simulated: 47500  inst.: 7821312 (ipc=164.7) sim_rate=144839 (inst/sec) elapsed = 0:0:00:54 / Tue Apr 16 16:52:41 2019
GPGPU-Sim PTX: 7900000 instructions simulated : ctaid=(37,0,0) tid=(63,0,0)
GPGPU-Sim uArch: cycles simulated: 48000  inst.: 7942112 (ipc=165.5) sim_rate=144402 (inst/sec) elapsed = 0:0:00:55 / Tue Apr 16 16:52:42 2019
GPGPU-Sim PTX: 8000000 instructions simulated : ctaid=(37,0,0) tid=(31,0,0)
GPGPU-Sim PTX: 8100000 instructions simulated : ctaid=(46,0,0) tid=(63,0,0)
GPGPU-Sim PTX: 8200000 instructions simulated : ctaid=(39,0,0) tid=(31,0,0)
GPGPU-Sim uArch: cycles simulated: 49000  inst.: 8188384 (ipc=167.1) sim_rate=146221 (inst/sec) elapsed = 0:0:00:56 / Tue Apr 16 16:52:43 2019
GPGPU-Sim PTX: 8300000 instructions simulated : ctaid=(10,0,0) tid=(63,0,0)
GPGPU-Sim PTX: 8400000 instructions simulated : ctaid=(40,0,0) tid=(63,0,0)
GPGPU-Sim uArch: cycles simulated: 50000  inst.: 8440736 (ipc=168.8) sim_rate=148083 (inst/sec) elapsed = 0:0:00:57 / Tue Apr 16 16:52:44 2019
GPGPU-Sim PTX: 8500000 instructions simulated : ctaid=(19,0,0) tid=(31,0,0)
GPGPU-Sim PTX: 8600000 instructions simulated : ctaid=(26,0,0) tid=(63,0,0)
GPGPU-Sim PTX: 8700000 instructions simulated : ctaid=(63,0,0) tid=(31,0,0)
GPGPU-Sim uArch: cycles simulated: 51000  inst.: 8687808 (ipc=170.3) sim_rate=149789 (inst/sec) elapsed = 0:0:00:58 / Tue Apr 16 16:52:45 2019
GPGPU-Sim PTX: 8800000 instructions simulated : ctaid=(7,0,0) tid=(63,0,0)
GPGPU-Sim uArch: cycles simulated: 51500  inst.: 8807200 (ipc=171.0) sim_rate=149274 (inst/sec) elapsed = 0:0:00:59 / Tue Apr 16 16:52:46 2019
GPGPU-Sim PTX: 8900000 instructions simulated : ctaid=(12,0,0) tid=(63,0,0)
GPGPU-Sim PTX: 9000000 instructions simulated : ctaid=(49,0,0) tid=(31,0,0)
GPGPU-Sim uArch: cycles simulated: 52500  inst.: 9043712 (ipc=172.3) sim_rate=150728 (inst/sec) elapsed = 0:0:01:00 / Tue Apr 16 16:52:47 2019
GPGPU-Sim PTX: 9100000 instructions simulated : ctaid=(15,0,0) tid=(63,0,0)
GPGPU-Sim PTX: 9200000 instructions simulated : ctaid=(34,0,0) tid=(31,0,0)
GPGPU-Sim PTX: 9300000 instructions simulated : ctaid=(16,0,0) tid=(31,0,0)
GPGPU-Sim uArch: cycles simulated: 53500  inst.: 9290752 (ipc=173.7) sim_rate=152307 (inst/sec) elapsed = 0:0:01:01 / Tue Apr 16 16:52:48 2019
GPGPU-Sim PTX: 9400000 instructions simulated : ctaid=(56,0,0) tid=(31,0,0)
GPGPU-Sim uArch: cycles simulated: 54000  inst.: 9415264 (ipc=174.4) sim_rate=151859 (inst/sec) elapsed = 0:0:01:02 / Tue Apr 16 16:52:49 2019
GPGPU-Sim PTX: 9500000 instructions simulated : ctaid=(38,0,0) tid=(31,0,0)
GPGPU-Sim PTX: 9600000 instructions simulated : ctaid=(0,0,0) tid=(31,0,0)
GPGPU-Sim uArch: cycles simulated: 55000  inst.: 9658336 (ipc=175.6) sim_rate=153306 (inst/sec) elapsed = 0:0:01:03 / Tue Apr 16 16:52:50 2019
GPGPU-Sim PTX: 9700000 instructions simulated : ctaid=(44,0,0) tid=(31,0,0)
GPGPU-Sim PTX: 9800000 instructions simulated : ctaid=(49,0,0) tid=(31,0,0)
GPGPU-Sim PTX: 9900000 instructions simulated : ctaid=(15,0,0) tid=(63,0,0)
GPGPU-Sim uArch: cycles simulated: 56000  inst.: 9897120 (ipc=176.7) sim_rate=154642 (inst/sec) elapsed = 0:0:01:04 / Tue Apr 16 16:52:51 2019
GPGPU-Sim PTX: 10000000 instructions simulated : ctaid=(8,0,0) tid=(31,0,0)
GPGPU-Sim uArch: cycles simulated: 56500  inst.: 10016128 (ipc=177.3) sim_rate=154094 (inst/sec) elapsed = 0:0:01:05 / Tue Apr 16 16:52:52 2019
GPGPU-Sim PTX: 10100000 instructions simulated : ctaid=(38,0,0) tid=(63,0,0)
GPGPU-Sim uArch: cycles simulated: 57000  inst.: 10135776 (ipc=177.8) sim_rate=153572 (inst/sec) elapsed = 0:0:01:06 / Tue Apr 16 16:52:53 2019
GPGPU-Sim PTX: 10200000 instructions simulated : ctaid=(39,0,0) tid=(63,0,0)
GPGPU-Sim PTX: 10300000 instructions simulated : ctaid=(13,0,0) tid=(63,0,0)
GPGPU-Sim PTX: 10400000 instructions simulated : ctaid=(14,0,0) tid=(63,0,0)
GPGPU-Sim uArch: cycles simulated: 58000  inst.: 10380640 (ipc=179.0) sim_rate=154934 (inst/sec) elapsed = 0:0:01:07 / Tue Apr 16 16:52:54 2019
GPGPU-Sim PTX: 10500000 instructions simulated : ctaid=(63,0,0) tid=(63,0,0)
GPGPU-Sim uArch: cycles simulated: 58500  inst.: 10501152 (ipc=179.5) sim_rate=154428 (inst/sec) elapsed = 0:0:01:08 / Tue Apr 16 16:52:55 2019
GPGPU-Sim PTX: 10600000 instructions simulated : ctaid=(18,0,0) tid=(63,0,0)
GPGPU-Sim PTX: 10700000 instructions simulated : ctaid=(14,0,0) tid=(31,0,0)
GPGPU-Sim uArch: cycles simulated: 59500  inst.: 10738336 (ipc=180.5) sim_rate=155628 (inst/sec) elapsed = 0:0:01:09 / Tue Apr 16 16:52:56 2019
GPGPU-Sim PTX: 10800000 instructions simulated : ctaid=(53,0,0) tid=(63,0,0)
GPGPU-Sim uArch: cycles simulated: 60000  inst.: 10857024 (ipc=181.0) sim_rate=155100 (inst/sec) elapsed = 0:0:01:10 / Tue Apr 16 16:52:57 2019
GPGPU-Sim PTX: 10900000 instructions simulated : ctaid=(38,0,0) tid=(31,0,0)
GPGPU-Sim PTX: 11000000 instructions simulated : ctaid=(43,0,0) tid=(63,0,0)
GPGPU-Sim PTX: 11100000 instructions simulated : ctaid=(57,0,0) tid=(31,0,0)
GPGPU-Sim uArch: cycles simulated: 61000  inst.: 11089728 (ipc=181.8) sim_rate=156193 (inst/sec) elapsed = 0:0:01:11 / Tue Apr 16 16:52:58 2019
GPGPU-Sim PTX: 11200000 instructions simulated : ctaid=(40,0,0) tid=(31,0,0)
GPGPU-Sim PTX: 11300000 instructions simulated : ctaid=(44,0,0) tid=(31,0,0)
GPGPU-Sim uArch: cycles simulated: 62000  inst.: 11328928 (ipc=182.7) sim_rate=157346 (inst/sec) elapsed = 0:0:01:12 / Tue Apr 16 16:52:59 2019
GPGPU-Sim PTX: 11400000 instructions simulated : ctaid=(10,0,0) tid=(63,0,0)
GPGPU-Sim uArch: cycles simulated: 62500  inst.: 11444576 (ipc=183.1) sim_rate=156775 (inst/sec) elapsed = 0:0:01:13 / Tue Apr 16 16:53:00 2019
GPGPU-Sim PTX: 11500000 instructions simulated : ctaid=(31,0,0) tid=(31,0,0)
GPGPU-Sim PTX: 11600000 instructions simulated : ctaid=(57,0,0) tid=(63,0,0)
GPGPU-Sim PTX: 11700000 instructions simulated : ctaid=(36,0,0) tid=(31,0,0)
GPGPU-Sim uArch: cycles simulated: 63500  inst.: 11678016 (ipc=183.9) sim_rate=157811 (inst/sec) elapsed = 0:0:01:14 / Tue Apr 16 16:53:01 2019
GPGPU-Sim PTX: 11800000 instructions simulated : ctaid=(49,0,0) tid=(31,0,0)
GPGPU-Sim PTX: 11900000 instructions simulated : ctaid=(47,0,0) tid=(31,0,0)
GPGPU-Sim uArch: cycles simulated: 64500  inst.: 11908896 (ipc=184.6) sim_rate=158785 (inst/sec) elapsed = 0:0:01:15 / Tue Apr 16 16:53:02 2019
GPGPU-Sim PTX: 12000000 instructions simulated : ctaid=(4,0,0) tid=(63,0,0)
GPGPU-Sim PTX: 12100000 instructions simulated : ctaid=(62,0,0) tid=(31,0,0)
GPGPU-Sim uArch: cycles simulated: 65500  inst.: 12147200 (ipc=185.5) sim_rate=159831 (inst/sec) elapsed = 0:0:01:16 / Tue Apr 16 16:53:03 2019
GPGPU-Sim PTX: 12200000 instructions simulated : ctaid=(29,0,0) tid=(31,0,0)
GPGPU-Sim uArch: cycles simulated: 66000  inst.: 12264128 (ipc=185.8) sim_rate=159274 (inst/sec) elapsed = 0:0:01:17 / Tue Apr 16 16:53:04 2019
GPGPU-Sim PTX: 12300000 instructions simulated : ctaid=(14,0,0) tid=(31,0,0)
GPGPU-Sim PTX: 12400000 instructions simulated : ctaid=(40,0,0) tid=(31,0,0)
GPGPU-Sim PTX: 12500000 instructions simulated : ctaid=(40,0,0) tid=(31,0,0)
GPGPU-Sim uArch: cycles simulated: 67000  inst.: 12496800 (ipc=186.5) sim_rate=160215 (inst/sec) elapsed = 0:0:01:18 / Tue Apr 16 16:53:05 2019
GPGPU-Sim PTX: 12600000 instructions simulated : ctaid=(16,0,0) tid=(63,0,0)
GPGPU-Sim PTX: 12700000 instructions simulated : ctaid=(47,0,0) tid=(31,0,0)
GPGPU-Sim uArch: cycles simulated: 68000  inst.: 12730880 (ipc=187.2) sim_rate=161150 (inst/sec) elapsed = 0:0:01:19 / Tue Apr 16 16:53:06 2019
GPGPU-Sim PTX: 12800000 instructions simulated : ctaid=(24,0,0) tid=(31,0,0)
GPGPU-Sim PTX: 12900000 instructions simulated : ctaid=(57,0,0) tid=(31,0,0)
GPGPU-Sim uArch: cycles simulated: 69000  inst.: 12967456 (ipc=187.9) sim_rate=162093 (inst/sec) elapsed = 0:0:01:20 / Tue Apr 16 16:53:07 2019
GPGPU-Sim PTX: 13000000 instructions simulated : ctaid=(56,0,0) tid=(63,0,0)
GPGPU-Sim PTX: 13100000 instructions simulated : ctaid=(5,0,0) tid=(63,0,0)
GPGPU-Sim uArch: cycles simulated: 69500  inst.: 13086656 (ipc=188.3) sim_rate=161563 (inst/sec) elapsed = 0:0:01:21 / Tue Apr 16 16:53:08 2019
GPGPU-Sim PTX: 13200000 instructions simulated : ctaid=(9,0,0) tid=(63,0,0)
GPGPU-Sim PTX: 13300000 instructions simulated : ctaid=(47,0,0) tid=(63,0,0)
GPGPU-Sim uArch: cycles simulated: 70500  inst.: 13318432 (ipc=188.9) sim_rate=162419 (inst/sec) elapsed = 0:0:01:22 / Tue Apr 16 16:53:09 2019
GPGPU-Sim PTX: 13400000 instructions simulated : ctaid=(16,0,0) tid=(31,0,0)
GPGPU-Sim PTX: 13500000 instructions simulated : ctaid=(62,0,0) tid=(63,0,0)
GPGPU-Sim uArch: cycles simulated: 71500  inst.: 13550880 (ipc=189.5) sim_rate=163263 (inst/sec) elapsed = 0:0:01:23 / Tue Apr 16 16:53:10 2019
GPGPU-Sim PTX: 13600000 instructions simulated : ctaid=(35,0,0) tid=(31,0,0)
GPGPU-Sim PTX: 13700000 instructions simulated : ctaid=(0,0,0) tid=(63,0,0)
GPGPU-Sim PTX: 13800000 instructions simulated : ctaid=(30,0,0) tid=(31,0,0)
GPGPU-Sim uArch: cycles simulated: 72500  inst.: 13788928 (ipc=190.2) sim_rate=164153 (inst/sec) elapsed = 0:0:01:24 / Tue Apr 16 16:53:11 2019
GPGPU-Sim PTX: 13900000 instructions simulated : ctaid=(4,0,0) tid=(31,0,0)
GPGPU-Sim uArch: cycles simulated: 73000  inst.: 13898784 (ipc=190.4) sim_rate=163515 (inst/sec) elapsed = 0:0:01:25 / Tue Apr 16 16:53:12 2019
GPGPU-Sim PTX: 14000000 instructions simulated : ctaid=(27,0,0) tid=(63,0,0)
GPGPU-Sim PTX: 14100000 instructions simulated : ctaid=(15,0,0) tid=(63,0,0)
GPGPU-Sim uArch: cycles simulated: 74000  inst.: 14137280 (ipc=191.0) sim_rate=164386 (inst/sec) elapsed = 0:0:01:26 / Tue Apr 16 16:53:13 2019
GPGPU-Sim PTX: 14200000 instructions simulated : ctaid=(8,0,0) tid=(31,0,0)
GPGPU-Sim PTX: 14300000 instructions simulated : ctaid=(33,0,0) tid=(63,0,0)
GPGPU-Sim PTX: 14400000 instructions simulated : ctaid=(33,0,0) tid=(31,0,0)
GPGPU-Sim uArch: cycles simulated: 75000  inst.: 14373312 (ipc=191.6) sim_rate=165210 (inst/sec) elapsed = 0:0:01:27 / Tue Apr 16 16:53:14 2019
GPGPU-Sim PTX: 14500000 instructions simulated : ctaid=(11,0,0) tid=(31,0,0)
GPGPU-Sim uArch: cycles simulated: 75500  inst.: 14488928 (ipc=191.9) sim_rate=164646 (inst/sec) elapsed = 0:0:01:28 / Tue Apr 16 16:53:15 2019
GPGPU-Sim PTX: 14600000 instructions simulated : ctaid=(41,0,0) tid=(63,0,0)
GPGPU-Sim PTX: 14700000 instructions simulated : ctaid=(45,0,0) tid=(31,0,0)
GPGPU-Sim uArch: cycles simulated: 76500  inst.: 14723584 (ipc=192.5) sim_rate=165433 (inst/sec) elapsed = 0:0:01:29 / Tue Apr 16 16:53:16 2019
GPGPU-Sim PTX: 14800000 instructions simulated : ctaid=(58,0,0) tid=(63,0,0)
GPGPU-Sim PTX: 14900000 instructions simulated : ctaid=(27,0,0) tid=(31,0,0)
GPGPU-Sim uArch: cycles simulated: 77500  inst.: 14960448 (ipc=193.0) sim_rate=166227 (inst/sec) elapsed = 0:0:01:30 / Tue Apr 16 16:53:17 2019
GPGPU-Sim PTX: 15000000 instructions simulated : ctaid=(53,0,0) tid=(31,0,0)
GPGPU-Sim PTX: 15100000 instructions simulated : ctaid=(42,0,0) tid=(63,0,0)
GPGPU-Sim uArch: cycles simulated: 78000  inst.: 15082560 (ipc=193.4) sim_rate=165742 (inst/sec) elapsed = 0:0:01:31 / Tue Apr 16 16:53:18 2019
GPGPU-Sim PTX: 15200000 instructions simulated : ctaid=(34,0,0) tid=(63,0,0)
GPGPU-Sim PTX: 15300000 instructions simulated : ctaid=(33,0,0) tid=(31,0,0)
GPGPU-Sim uArch: cycles simulated: 79000  inst.: 15315808 (ipc=193.9) sim_rate=166476 (inst/sec) elapsed = 0:0:01:32 / Tue Apr 16 16:53:19 2019
GPGPU-Sim PTX: 15400000 instructions simulated : ctaid=(8,0,0) tid=(31,0,0)
GPGPU-Sim PTX: 15500000 instructions simulated : ctaid=(1,0,0) tid=(31,0,0)
GPGPU-Sim uArch: cycles simulated: 80000  inst.: 15553728 (ipc=194.4) sim_rate=167244 (inst/sec) elapsed = 0:0:01:33 / Tue Apr 16 16:53:20 2019
GPGPU-Sim PTX: 15600000 instructions simulated : ctaid=(10,0,0) tid=(31,0,0)
GPGPU-Sim PTX: 15700000 instructions simulated : ctaid=(63,0,0) tid=(31,0,0)
GPGPU-Sim PTX: 15800000 instructions simulated : ctaid=(40,0,0) tid=(63,0,0)
GPGPU-Sim uArch: cycles simulated: 81000  inst.: 15790048 (ipc=194.9) sim_rate=167979 (inst/sec) elapsed = 0:0:01:34 / Tue Apr 16 16:53:21 2019
GPGPU-Sim PTX: 15900000 instructions simulated : ctaid=(58,0,0) tid=(31,0,0)
GPGPU-Sim uArch: cycles simulated: 81500  inst.: 15911712 (ipc=195.2) sim_rate=167491 (inst/sec) elapsed = 0:0:01:35 / Tue Apr 16 16:53:22 2019
GPGPU-Sim PTX: 16000000 instructions simulated : ctaid=(1,0,0) tid=(31,0,0)
GPGPU-Sim PTX: 16100000 instructions simulated : ctaid=(15,0,0) tid=(63,0,0)
GPGPU-Sim uArch: cycles simulated: 82500  inst.: 16147040 (ipc=195.7) sim_rate=168198 (inst/sec) elapsed = 0:0:01:36 / Tue Apr 16 16:53:23 2019
GPGPU-Sim PTX: 16200000 instructions simulated : ctaid=(46,0,0) tid=(63,0,0)
GPGPU-Sim PTX: 16300000 instructions simulated : ctaid=(13,0,0) tid=(63,0,0)
[...]
mf_lat_table:0 	0 	0 	0 	0 	0 	0 	182817 	1739699 	41050 	4488 	0 	0 	0 	0 	0 	0 	0 	0 	0 	0 	0 	0 	0 	0 	0 	0 	0 	0 	0 	0 	0 	
icnt2mem_lat_table:0 	0 	0 	2345027 	495532 	9362 	10400 	11652 	20835 	669 	0 	0 	0 	0 	0 	0 	0 	0 	0 	0 	0 	0 	0 	0 	
icnt2sh_lat_table:0 	0 	0 	1391191 	189246 	799 	0 	0 	0 	0 	0 	1037 	2707 	5725 	10718 	293 	0 	0 	0 	0 	162837 	203373 	128 	0 	
mf_lat_pw_table:0 	0 	0 	0 	0 	0 	0 	1772 	8280 	119 	2 	0 	0 	0 	0 	0 	0 	0 	0 	0 	0 	0 	0 	0 	0 	0 	0 	0 	0 	0 	0 	0 	
maximum concurrent accesses to same row:
dram[0]:        36        30        40        54        24        24        26        30        42        34        24        28        28        24        24        28 
dram[1]:        32        32        50        54        24        22        28        28        42        38        28        25        28        28        28        27 
dram[2]:        38        32        46        60        32        22        25        32        36        42        26        23        27        24        28        28 
dram[3]:        28        32        46        48        30        20        28        28        30        40        28        26        24        25        32        28 
dram[4]:        32        30        48        54        22        24        24        28        30        36        28        29        27        29        30        28 
dram[5]:        28        42        52        42        23        24        32        24        32        44        26        24        24        26        28        28 
maximum service time to same row:
dram[0]:     46866     45206     37183     41242     62178     57449     33332     44297     50489     31413     23101     18899     30116     14103     30961     63922 
dram[1]:     19997     43318     61033     36543     30041     59220     40818     29374     24483     42871     11399     15004     11306     13475     37637     16291 
dram[2]:     51709     32977    106086    114522     23820     37265     33350     80097     21709     26891     32041     16366     12754     22772     48285     88710 
dram[3]:     91686     52620     57408     32834     90479     73974     29410     30078     49918     23107     35777     43275     28202     16220     32037     34240 
dram[4]:     24844     19141     30727     45604     26519     20647     44619     31296     25431     15031     10203     12880     16480     11228     16282     34677 
dram[5]:     72668     41289     40545     33965     55971     34266     44049     34694     31447     25197     12677     24190     20623     16413     50066     23634 
average row accesses per activate:
dram[0]:  1.737545  1.739888  1.775448  1.766416  1.747714  1.780219  1.761521  1.750474  1.748783  1.766812  1.736542  1.746685  1.736549  1.729686  1.728725  1.727119 
dram[1]:  1.760841  1.762733  1.801410  1.802106  1.786634  1.798723  1.792670  1.765117  1.761124  1.787385  1.778494  1.757962  1.751890  1.753012  1.755590  1.749482 
dram[2]:  1.813577  1.765269  1.817554  1.821296  1.809134  1.823580  1.826803  1.784578  1.801230  1.807423  1.777948  1.791467  1.796381  1.778681  1.742522  1.797040 
dram[3]:  1.742933  1.732289  1.754628  1.787785  1.771850  1.757714  1.766387  1.763421  1.744022  1.758181  1.769379  1.732434  1.721611  1.724897  1.711642  1.738750 
dram[4]:  1.750900  1.776000  1.797209  1.790799  1.793844  1.785459  1.775604  1.788622  1.752445  1.782810  1.767094  1.753954  1.731601  1.768139  1.757699  1.731896 
dram[5]:  1.781884  1.797249  1.804915  1.822268  1.830317  1.815327  1.812785  1.801858  1.771000  1.819200  1.798950  1.773997  1.776747  1.785059  1.786108  1.757335 
average row locality = 3587353/2025063 = 1.771477
number of total memory accesses made:
dram[0]:         0         0         0         0         0         0         0         0         0         0         0         0         0         0         0         0 
dram[1]:         0         0         0         0         0         0         0         0         0         0         0         0         0         0         0         0 
dram[2]:         0         0         0         0         0         0         0         0         0         0         0         0         0         0         0         0 
dram[3]:         0         0         0         0         0         0         0         0         0         0         0         0         0         0         0         0 
dram[4]:         0         0         0         0         0         0         0         0         0         0         0         0         0         0         0         0 
dram[5]:         0         0         0         0         0         0         0         0         0         0         0         0         0         0         0         0 
total accesses: 0
min_bank_accesses = 0!
min_chip_accesses = 0!
number of total read accesses:
dram[0]:     23047     22722     22588     21976     22623     24187     24097     23060     24177     24369     24005     25348     26176     24496     24858     25890 
dram[1]:     23205     22724     22823     22324     22875     24069     24357     23086     24305     24612     24524     25366     26205     24715     25545     26111 
dram[2]:     24616     23289     23618     22990     23591     25015     25350     23950     25000     25640     25730     25897     26963     25865     25950     26952 
dram[3]:     23208     22021     22050     23139     23244     23336     24144     23264     23346     25133     25664     24078     24888     25033     25131     26221 
dram[4]:     23461     22405     22070     23082     23414     23543     24240     23683     23615     25310     25482     24631     25383     25505     25444     26242 
dram[5]:     24445     23050     22856     24099     24549     24128     25028     24297     24637     26054     26630     25119     25985     26596     26895     26928 
total reads: 2343587
bank skew: 26963/21976 = 1.23
chip skew: 401296/383619 = 1.05
number of total write accesses:
dram[0]:     12074     11820     11703     11381     11786     12765     12791     12051     12815     12992     12834     13507     14105     13161     13333     13984 
dram[1]:     12408     12023     11928     11734     12093     12830     13108     12294     13096     13218     13285     13768     14353     13406     13789     14386 
dram[2]:     12760     12117     12146     11835     12181     13096     13349     12409     13087     13563     13632     13741     14528     13732     13898     14459 
dram[3]:     12184     11478     11409     12075     12092     12212     12694     12179     12321     13496     13687     12783     13318     13515     13535     14078 
dram[4]:     12534     11783     11545     12263     12427     12459     12966     12567     12757     13664     13827     13293     13791     13974     13765     14487 
dram[5]:     12775     11964     11737     12514     12773     12518     13084     12751     13018     13892     14136     13249     13839     14264     14223     14517 
total reads: 1243766
bank skew: 14528/11381 = 1.28
chip skew: 211254/203056 = 1.04
average mf latency per bank:
dram[0]:        159       159       161       164       163       160       160       161       158       158       159       157       156       157       157       157
dram[1]:        160       160       161       163       163       160       159       163       158       157       158       157       156       158       155       156
dram[2]:        158       161       162       164       163       161       160       163       158       158       159       158       156       158       159       157
dram[3]:        159       161       162       159       161       161       157       160       158       156       154       158       156       158       157       154
dram[4]:        158       160       162       162       162       160       159       160       159       156       156       157       157       156       155       156
dram[5]:        158       161       163       162       162       161       159       161       159       156       156       159       158       156       155       157
maximum mf latency per bank:
dram[0]:       1291      1249      1287      1571      1481      1478      1264      1584      1204      1319      1344      1489      1354      1263      1328      1327
dram[1]:       1370      1224      1581      1548      1583      1419      1520      1374      1255      1357      1485      1543      1307      1191      1343      1621
dram[2]:       1431      1343      1245      1673      1652      1357      1306      1373      1257      1295      1665      1444      1268      1309      1388      1338
dram[3]:       1255      1534      1653      1404      1333      1399      1310      1475      1316      1354      1249      1393      1160      1269      1295      1259
dram[4]:       1446      1346      1606      1505      1574      1302      1516      1390      1331      1283      1387      1396      1360      1428      1338      1360
dram[5]:       1189      1251      1455      1691      1412      1319      1289      1493      1193      1405      1346      1234      1241      1449      1311      1356

Number of Memory Banks Accessed per Memory Operation per Warp (from 0):
0	0	0	0	0	0	0	0	0	0	0	0	0	0	0	0	0	0	0	0	0	0	0	0	0	0	0	0	0	0	0	0	0	0	0	0	0	0	0	0	0	0	0	0	0	0	0	0	0	0	0	0	0	0	0	0	0	0	0	0	0	0	0	0	0	0	0	0	0	0	0	0	0	0	0	0	0	0	0	0	0	0	0	0	0	0	0	0	0	0	0	0	0	0	0	0	
Average # of Memory Banks Accessed per Memory Operation per Warp=-nan

position of mrq chosen
0	0	0	0	0	0	0	0	0	0	0	0	0	0	0	0	

average position of mrq chosen = -nan
Memory Partition 0: 
Cache L2_bank_000:
MSHR contents

Cache L2_bank_001:
MSHR contents

In Dram Latency Queue (total = 0): 
DRAM[0]: 16 bks, busW=4 BL=8 CL=12, tRRD=2 tCCD=6, tRCD=12 tRAS=28 tRP=12 tRC=40
n_cmd=6718685 n_nop=4874033 n_act=335613 n_pre=335597 n_req=586721 n_rd=767238 n_write=406204 bw_util=0.3493
n_activity=5882541 dram_eff=0.399
bk0: 46094a 5562567i bk1: 45444a 5578200i bk2: 45176a 5591246i bk3: 43952a 5612208i bk4: 45246a 5569732i bk5: 48374a 5485187i bk6: 48194a 5465677i bk7: 46120a 5507697i bk8: 48354a 5519866i bk9: 48738a 5494227i bk10: 48010a 5499990i bk11: 50696a 5425249i bk12: 52352a 5356022i bk13: 48992a 5430386i bk14: 49716a 5396706i bk15: 51780a 5328486i 
dram_util_bins: 0 0 0 0 0 0 0 0 0 0
dram_eff_bins: 0 0 0 0 0 0 0 0 0 0
mrqq: max=16 avg=1.8863
Memory Partition 1: 
Cache L2_bank_002:
MSHR contents

Cache L2_bank_003:
MSHR contents

In Dram Latency Queue (total = 0): 
DRAM[1]: 16 bks, busW=4 BL=8 CL=12, tRRD=2 tCCD=6, tRCD=12 tRAS=28 tRP=12 tRC=40
n_cmd=6718685 n_nop=4858513 n_act=335529 n_pre=335513 n_req=594565 n_rd=773692 n_write=415438 bw_util=0.354
n_activity=5977058 dram_eff=0.3979
bk0: 46410a 5555534i bk1: 45448a 5579647i bk2: 45646a 5583644i bk3: 44648a 5602810i bk4: 45750a 5564698i bk5: 48138a 5488312i bk6: 48714a 5458641i bk7: 46172a 5508695i bk8: 48610a 5519952i bk9: 49224a 5495763i bk10: 49048a 5485623i bk11: 50732a 5425078i bk12: 52410a 5353635i bk13: 49430a 5418616i bk14: 51090a 5376462i bk15: 52222a 5323753i 
dram_util_bins: 0 0 0 0 0 0 0 0 0 0
dram_eff_bins: 0 0 0 0 0 0 0 0 0 0
mrqq: max=16 avg=1.96881
Memory Partition 2: 
Cache L2_bank_004:
MSHR contents

Cache L2_bank_005:
MSHR contents

In Dram Latency Queue (total = 0): 
DRAM[2]: 16 bks, busW=4 BL=8 CL=12, tRRD=2 tCCD=6, tRCD=12 tRAS=28 tRP=12 tRC=40
n_cmd=6718685 n_nop=4816671 n_act=340066 n_pre=340050 n_req=610949 n_rd=800832 n_write=421066 bw_util=0.3637
n_activity=5921793 dram_eff=0.4127
bk0: 49232a 5493513i bk1: 46578a 5540042i bk2: 47236a 5528302i bk3: 45980a 5554166i bk4: 47182a 5511000i bk5: 50030a 5427266i bk6: 50700a 5391618i bk7: 47900a 5449639i bk8: 50000a 5480937i bk9: 51280a 5433028i bk10: 51460a 5398772i bk11: 51794a 5386290i bk12: 53926a 5304443i bk13: 51730a 5351764i bk14: 51900a 5325743i bk15: 53904a 5266711i 
dram_util_bins: 0 0 0 0 0 0 0 0 0 0
dram_eff_bins: 0 0 0 0 0 0 0 0 0 0
mrqq: max=16 avg=2.13342
Memory Partition 3: 
Cache L2_bank_006:
MSHR contents
MSHR: tag=0x80007f00, atomic=0 1 entries : 0x7fbed8f8f650 :  mf: uid=23169665, sid08:w08, part=3, addr=0x80007f00, load , size=128, unknown  status = IN_PARTITION_DRAM (5089911), 

Cache L2_bank_007:
MSHR contents

In Dram Latency Queue (total = 0): 
DRAM[3]: 16 bks, busW=4 BL=8 CL=12, tRRD=2 tCCD=6, tRCD=12 tRAS=28 tRP=12 tRC=40
n_cmd=6718685 n_nop=4873235 n_act=335777 n_pre=335761 n_req=586956 n_rd=767800 n_write=406112 bw_util=0.3494
n_activity=5877952 dram_eff=0.3994
bk0: 46416a 5553637i bk1: 44042a 5607818i bk2: 44100a 5609820i bk3: 46278a 5555398i bk4: 46488a 5543309i bk5: 46672a 5514760i bk6: 48288a 5470331i bk7: 46528a 5504066i bk8: 46692a 5555441i bk9: 50266a 5461331i bk10: 51328a 5421905i bk11: 48156a 5476608i bk12: 49776a 5421150i bk13: 50066a 5396616i bk14: 50262a 5376310i bk15: 52442a 5314100i 
dram_util_bins: 0 0 0 0 0 0 0 0 0 0
dram_eff_bins: 0 0 0 0 0 0 0 0 0 0
mrqq: max=16 avg=1.88996
Memory Partition 4: 
Cache L2_bank_008:
MSHR contents

Cache L2_bank_009:
MSHR contents

In Dram Latency Queue (total = 0): 
DRAM[4]: 16 bks, busW=4 BL=8 CL=12, tRRD=2 tCCD=6, tRCD=12 tRAS=28 tRP=12 tRC=40
n_cmd=6718685 n_nop=4853733 n_act=336872 n_pre=336856 n_req=595612 n_rd=775020 n_write=416204 bw_util=0.3546
n_activity=5985961 dram_eff=0.398
bk0: 46922a 5538918i bk1: 44810a 5599366i bk2: 44140a 5611685i bk3: 46164a 5556369i bk4: 46828a 5537418i bk5: 47086a 5514585i bk6: 48480a 5467888i bk7: 47366a 5495586i bk8: 47230a 5549562i bk9: 50620a 5455673i bk10: 50964a 5430238i bk11: 49262a 5454002i bk12: 50766a 5400347i bk13: 51010a 5387830i bk14: 50888a 5380910i bk15: 52484a 5305068i 
dram_util_bins: 0 0 0 0 0 0 0 0 0 0
dram_eff_bins: 0 0 0 0 0 0 0 0 0 0
mrqq: max=16 avg=1.9738
Memory Partition 5: 
Cache L2_bank_010:
MSHR contents

Cache L2_bank_011:
MSHR contents

In Dram Latency Queue (total = 0): 
DRAM[5]: 16 bks, busW=4 BL=8 CL=12, tRRD=2 tCCD=6, tRCD=12 tRAS=28 tRP=12 tRC=40
n_cmd=6718685 n_nop=4811183 n_act=341209 n_pre=341193 n_req=612550 n_rd=802592 n_write=422508 bw_util=0.3647
n_activity=5932029 dram_eff=0.413
bk0: 48890a 5484161i bk1: 46100a 5554392i bk2: 45712a 5565629i bk3: 48198a 5500047i bk4: 49098a 5464931i bk5: 48256a 5474065i bk6: 50056a 5409598i bk7: 48594a 5433223i bk8: 49274a 5482863i bk9: 52108a 5412021i bk10: 53260a 5363158i bk11: 50238a 5417810i bk12: 51970a 5361496i bk13: 53192a 5310464i bk14: 53790a 5291006i bk15: 53856a 5247867i 
dram_util_bins: 0 0 0 0 0 0 0 0 0 0
dram_eff_bins: 0 0 0 0 0 0 0 0 0 0
mrqq: max=16 avg=2.13332

========= L2 cache stats =========
L2_cache_bank[0]: Access = 236995, Miss = 191571, Miss_rate = 0.808, Pending_hits = 41, Reservation_fails = 111
L2_cache_bank[1]: Access = 237281, Miss = 192048, Miss_rate = 0.809, Pending_hits = 39, Reservation_fails = 434
L2_cache_bank[2]: Access = 240261, Miss = 193839, Miss_rate = 0.807, Pending_hits = 44, Reservation_fails = 143
L2_cache_bank[3]: Access = 239595, Miss = 193007, Miss_rate = 0.806, Pending_hits = 37, Reservation_fails = 424
L2_cache_bank[4]: Access = 246661, Miss = 200818, Miss_rate = 0.814, Pending_hits = 30, Reservation_fails = 175
L2_cache_bank[5]: Access = 245529, Miss = 199598, Miss_rate = 0.813, Pending_hits = 39, Reservation_fails = 22
L2_cache_bank[6]: Access = 236658, Miss = 191675, Miss_rate = 0.810, Pending_hits = 22, Reservation_fails = 136
L2_cache_bank[7]: Access = 237553, Miss = 192225, Miss_rate = 0.809, Pending_hits = 33, Reservation_fails = 594
L2_cache_bank[8]: Access = 239648, Miss = 193109, Miss_rate = 0.806, Pending_hits = 40, Reservation_fails = 37
L2_cache_bank[9]: Access = 240535, Miss = 194401, Miss_rate = 0.808, Pending_hits = 27, Reservation_fails = 85
L2_cache_bank[10]: Access = 246507, Miss = 201025, Miss_rate = 0.815, Pending_hits = 25, Reservation_fails = 280
L2_cache_bank[11]: Access = 246254, Miss = 200271, Miss_rate = 0.813, Pending_hits = 38, Reservation_fails = 31
L2_total_cache_accesses = 2893477
L2_total_cache_misses = 2343587
L2_total_cache_miss_rate = 0.8100
L2_total_cache_pending_hits = 415
L2_total_cache_reservation_fails = 2472
L2_total_cache_breakdown:
	L2_cache_stats_breakdown[LOCAL_ACC_R][HIT] = 170293
	L2_cache_stats_breakdown[LOCAL_ACC_R][HIT_RESERVED] = 356
	L2_cache_stats_breakdown[LOCAL_ACC_R][MISS] = 1410437
	L2_cache_stats_breakdown[LOCAL_ACC_R][RESERVATION_FAIL] = 49
	L2_cache_stats_breakdown[CONST_ACC_R][HIT] = 122
	L2_cache_stats_breakdown[CONST_ACC_R][HIT_RESERVED] = 16
	L2_cache_stats_breakdown[CONST_ACC_R][MISS] = 12
	L2_cache_stats_breakdown[CONST_ACC_R][RESERVATION_FAIL] = 361
	L2_cache_stats_breakdown[GLOBAL_ACC_W][MISS] = 384
	L2_cache_stats_breakdown[LOCAL_ACC_W][HIT] = 81
	L2_cache_stats_breakdown[LOCAL_ACC_W][HIT_RESERVED] = 5
	L2_cache_stats_breakdown[LOCAL_ACC_W][MISS] = 386348
	L2_cache_stats_breakdown[LOCAL_ACC_W][RESERVATION_FAIL] = 811
	L2_cache_stats_breakdown[L1_WRBK_ACC][HIT] = 378533
	L2_cache_stats_breakdown[L1_WRBK_ACC][MISS] = 546290
	L2_cache_stats_breakdown[L1_WRBK_ACC][RESERVATION_FAIL] = 29
	L2_cache_stats_breakdown[INST_ACC_R][HIT] = 446
	L2_cache_stats_breakdown[INST_ACC_R][HIT_RESERVED] = 38
	L2_cache_stats_breakdown[INST_ACC_R][MISS] = 116
	L2_cache_stats_breakdown[INST_ACC_R][RESERVATION_FAIL] = 1222
L2_cache_data_port_util = 0.051
L2_cache_fill_port_util = 0.153

icnt_total_pkts_mem_to_simt=8295698
icnt_total_pkts_simt_to_mem=8140041
LD_mem_lat_dist  0 0 0 0 0 0 0 0 0 0 0 0 0 0 0 0 0 0 0 0 0 0 0 0 0 0 0
ST_mem_lat_dist  0 0 0 0 0 0 0 0 0 0 0 0 0 0 0 0 0 0 0 0 0 0 0 0 0 0 0
----------------------------Interconnect-DETAILS--------------------------------
Class 0:
Packet latency average = 10.2922
	minimum = 6
	maximum = 476
Network latency average = 9.81686
	minimum = 6
	maximum = 471
Slowest packet = 989251
Flit latency average = 7.66697
	minimum = 6
	maximum = 467
Slowest flit = 3564715
Fragmentation average = 0.0170583
	minimum = 0
	maximum = 436
Injected packet rate average = 0.0393399
	minimum = 0.0364298 (at node 18)
	maximum = 0.0484479 (at node 5)
Accepted packet rate average = 0.0393399
	minimum = 0.0277137 (at node 0)
	maximum = 0.0532241 (at node 25)
Injected flit rate average = 0.130748
	minimum = 0.105262 (at node 0)
	maximum = 0.158275 (at node 25)
Accepted flit rate average= 0.130748
	minimum = 0.114163 (at node 0)
	maximum = 0.146212 (at node 25)
Injected packet length average = 3.32356
Accepted packet length average = 3.32356
Total in-flight flits = 0 (0 measured)
====== Overall Traffic Statistics ======
====== Traffic class 0 ======
Packet latency average = 10.6199 (2 samples)
	minimum = 6 (2 samples)
	maximum = 492.5 (2 samples)
Network latency average = 10.0984 (2 samples)
	minimum = 6 (2 samples)
	maximum = 473 (2 samples)
Flit latency average = 7.82048 (2 samples)
	minimum = 6 (2 samples)
	maximum = 469 (2 samples)
Fragmentation average = 0.0410877 (2 samples)
	minimum = 0 (2 samples)
	maximum = 411.5 (2 samples)
Injected packet rate average = 0.0323545 (2 samples)
	minimum = 0.0279131 (2 samples)
	maximum = 0.0419979 (2 samples)
Accepted packet rate average = 0.0323545 (2 samples)
	minimum = 0.021147 (2 samples)
	maximum = 0.0460549 (2 samples)
Injected flit rate average = 0.111076 (2 samples)
	minimum = 0.0940574 (2 samples)
	maximum = 0.133224 (2 samples)
Accepted flit rate average = 0.111076 (2 samples)
	minimum = 0.0908529 (2 samples)
	maximum = 0.132285 (2 samples)
Injected packet size average = 3.43311 (2 samples)
Accepted packet size average = 3.43311 (2 samples)
Hops average = 1 (2 samples)
----------------------------END-of-Interconnect-DETAILS-------------------------


gpgpu_simulation_time = 0 days, 1 hrs, 9 min, 45 sec (4185 sec)
gpgpu_simulation_rate = 238739 (inst/sec)
gpgpu_simulation_rate = 1216 (cycle/sec)
GPGPU-Sim: synchronize waiting for inactive GPU simulation
GPGPU-Sim API: Stream Manager State
GPGPU-Sim: detected inactive GPU simulation thread
v  =    224.32334900
Lb =     21.34812355
Time (Greeks)   : 2700806.750000 msec

Press ENTER to exit...
