

        *** GPGPU-Sim Simulator Version 3.2.2  [build 0] ***


GPGPU-Sim PTX: simulation mode 0 (can change with PTX_SIM_MODE_FUNC environment variable:
               1=functional simulation only, 0=detailed performance simulator)
GPGPU-Sim: Configuration options:

-network_mode                           1 # Interconnection network mode
-inter_config_file   config_fermi_islip.icnt # Interconnection network config file
-gpgpu_ptx_use_cuobjdump                    1 # Use cuobjdump to extract ptx and sass from binaries
-gpgpu_experimental_lib_support                    0 # Try to extract code from cuda libraries [Broken because of unknown cudaGetExportTable]
-gpgpu_ptx_convert_to_ptxplus                    0 # Convert SASS (native ISA) to ptxplus and run ptxplus
-gpgpu_ptx_force_max_capability                   20 # Force maximum compute capability
-gpgpu_ptx_inst_debug_to_file                    0 # Dump executed instructions' debug information to file
-gpgpu_ptx_inst_debug_file       inst_debug.txt # Executed instructions' debug output file
-gpgpu_ptx_inst_debug_thread_uid                    1 # Thread UID for executed instructions' debug output
-gpgpu_simd_model                       1 # 1 = post-dominator
-gpgpu_shader_core_pipeline              1536:32 # shader core pipeline config, i.e., {<nthread>:<warpsize>}
-gpgpu_tex_cache:l1  4:128:24,L:R:m:N:L,F:128:4,128:2 # per-shader L1 texture cache  (READ-ONLY) config  {<nsets>:<bsize>:<assoc>,<rep>:<wr>:<alloc>:<wr_alloc>,<mshr>:<N>:<merge>,<mq>:<rf>}
-gpgpu_const_cache:l1 64:64:2,L:R:f:N:L,A:2:32,4 # per-shader L1 constant memory cache  (READ-ONLY) config  {<nsets>:<bsize>:<assoc>,<rep>:<wr>:<alloc>:<wr_alloc>,<mshr>:<N>:<merge>,<mq>} 
-gpgpu_cache:il1     4:128:4,L:R:f:N:L,A:2:32,4 # shader L1 instruction cache config  {<nsets>:<bsize>:<assoc>,<rep>:<wr>:<alloc>:<wr_alloc>,<mshr>:<N>:<merge>,<mq>} 
-gpgpu_cache:dl1     64:128:2,L:L:m:N:H,A:32:8,8 # per-shader L1 data cache config  {<nsets>:<bsize>:<assoc>,<rep>:<wr>:<alloc>:<wr_alloc>,<mshr>:<N>:<merge>,<mq> | none}
-gpgpu_cache:dl1PrefL1                 none # per-shader L1 data cache config  {<nsets>:<bsize>:<assoc>,<rep>:<wr>:<alloc>:<wr_alloc>,<mshr>:<N>:<merge>,<mq> | none}
-gpgpu_cache:dl1PreShared                 none # per-shader L1 data cache config  {<nsets>:<bsize>:<assoc>,<rep>:<wr>:<alloc>:<wr_alloc>,<mshr>:<N>:<merge>,<mq> | none}
-gmem_skip_L1D                          0 # global memory access skip L1D cache (implements -Xptxas -dlcm=cg, default=no skip)
-gpgpu_perfect_mem                      0 # enable perfect memory mode (no cache miss)
-n_regfile_gating_group                    4 # group of lanes that should be read/written together)
-gpgpu_clock_gated_reg_file                    0 # enable clock gated reg file for power calculations
-gpgpu_clock_gated_lanes                    0 # enable clock gated lanes for power calculations
-gpgpu_shader_registers                32768 # Number of registers per shader core. Limits number of concurrent CTAs. (default 8192)
-gpgpu_shader_cta                       8 # Maximum number of concurrent CTAs in shader (default 8)
-gpgpu_num_cta_barriers                   16 # Maximum number of named barriers per CTA (default 16)
-gpgpu_n_clusters                      15 # number of processing clusters
-gpgpu_n_cores_per_cluster                    1 # number of simd cores per cluster
-gpgpu_n_cluster_ejection_buffer_size                    8 # number of packets in ejection buffer
-gpgpu_n_ldst_response_buffer_size                    2 # number of response packets in ld/st unit ejection buffer
-gpgpu_shmem_size                   16384 # Size of shared memory per shader core (default 16kB)
-gpgpu_shmem_size                   49152 # Size of shared memory per shader core (default 16kB)
-gpgpu_shmem_size_PrefL1                16384 # Size of shared memory per shader core (default 16kB)
-gpgpu_shmem_size_PrefShared                16384 # Size of shared memory per shader core (default 16kB)
-gpgpu_shmem_num_banks                   32 # Number of banks in the shared memory in each shader core (default 16)
-gpgpu_shmem_limited_broadcast                    0 # Limit shared memory to do one broadcast per cycle (default on)
-gpgpu_shmem_warp_parts                    1 # Number of portions a warp is divided into for shared memory bank conflict check 
-gpgpu_warpdistro_shader                   -1 # Specify which shader core to collect the warp size distribution from
-gpgpu_warp_issue_shader                    0 # Specify which shader core to collect the warp issue distribution from
-gpgpu_local_mem_map                    1 # Mapping from local memory space address to simulated GPU physical address space (default = enabled)
-gpgpu_num_reg_banks                   16 # Number of register banks (default = 8)
-gpgpu_reg_bank_use_warp_id                    0 # Use warp ID in mapping registers to banks (default = off)
-gpgpu_operand_collector_num_units_sp                    6 # number of collector units (default = 4)
-gpgpu_operand_collector_num_units_sfu                    8 # number of collector units (default = 4)
-gpgpu_operand_collector_num_units_mem                    2 # number of collector units (default = 2)
-gpgpu_operand_collector_num_units_gen                    0 # number of collector units (default = 0)
-gpgpu_operand_collector_num_in_ports_sp                    2 # number of collector unit in ports (default = 1)
-gpgpu_operand_collector_num_in_ports_sfu                    1 # number of collector unit in ports (default = 1)
-gpgpu_operand_collector_num_in_ports_mem                    1 # number of collector unit in ports (default = 1)
-gpgpu_operand_collector_num_in_ports_gen                    0 # number of collector unit in ports (default = 0)
-gpgpu_operand_collector_num_out_ports_sp                    2 # number of collector unit in ports (default = 1)
-gpgpu_operand_collector_num_out_ports_sfu                    1 # number of collector unit in ports (default = 1)
-gpgpu_operand_collector_num_out_ports_mem                    1 # number of collector unit in ports (default = 1)
-gpgpu_operand_collector_num_out_ports_gen                    0 # number of collector unit in ports (default = 0)
-gpgpu_coalesce_arch                   13 # Coalescing arch (default = 13, anything else is off for now)
-gpgpu_num_sched_per_core                    2 # Number of warp schedulers per core
-gpgpu_max_insn_issue_per_warp                    1 # Max number of instructions that can be issued per warp in one cycle by scheduler
-gpgpu_simt_core_sim_order                    1 # Select the simulation order of cores in a cluster (0=Fix, 1=Round-Robin)
-gpgpu_pipeline_widths        2,1,1,2,1,1,2 # Pipeline widths ID_OC_SP,ID_OC_SFU,ID_OC_MEM,OC_EX_SP,OC_EX_SFU,OC_EX_MEM,EX_WB
-gpgpu_num_sp_units                     2 # Number of SP units (default=1)
-gpgpu_num_sfu_units                    1 # Number of SF units (default=1)
-gpgpu_num_mem_units                    1 # Number if ldst units (default=1) WARNING: not hooked up to anything
-gpgpu_scheduler                      gto # Scheduler configuration: < lrr | gto | two_level_active > If two_level_active:<num_active_warps>:<inner_prioritization>:<outer_prioritization>For complete list of prioritization values see shader.h enum scheduler_prioritization_typeDefault: gto
-gpgpu_dram_scheduler                    1 # 0 = fifo, 1 = FR-FCFS (defaul)
-gpgpu_dram_partition_queues              8:8:8:8 # i2$:$2d:d2$:$2i
-l2_ideal                               0 # Use a ideal L2 cache that always hit
-gpgpu_cache:dl2     64:128:8,L:B:m:W:L,A:32:4,4:0,32 # unified banked L2 data cache config  {<nsets>:<bsize>:<assoc>,<rep>:<wr>:<alloc>:<wr_alloc>,<mshr>:<N>:<merge>,<mq>}
-gpgpu_cache:dl2_texture_only                    0 # L2 cache used for texture only
-gpgpu_n_mem                            6 # number of memory modules (e.g. memory controllers) in gpu
-gpgpu_n_sub_partition_per_mchannel                    2 # number of memory subpartition in each memory module
-gpgpu_n_mem_per_ctrlr                    2 # number of memory chips per memory controller
-gpgpu_memlatency_stat                   14 # track and display latency statistics 0x2 enables MC, 0x4 enables queue logs
-gpgpu_frfcfs_dram_sched_queue_size                   16 # 0 = unlimited (default); # entries per chip
-gpgpu_dram_return_queue_size                  116 # 0 = unlimited (default); # entries per chip
-gpgpu_dram_buswidth                    4 # default = 4 bytes (8 bytes per cycle at DDR)
-gpgpu_dram_burst_length                    8 # Burst length of each DRAM request (default = 4 data bus cycle)
-dram_data_command_freq_ratio                    4 # Frequency ratio between DRAM data bus and command bus (default = 2 times, i.e. DDR)
-gpgpu_dram_timing_opt nbk=16:CCD=2:RRD=6:RCD=12:RAS=28:RP=12:RC=40: CL=12:WL=4:CDLR=5:WR=12:nbkgrp=4:CCDL=3:RTPL=2 # DRAM timing parameters = {nbk:tCCD:tRRD:tRCD:tRAS:tRP:tRC:CL:WL:tCDLR:tWR:nbkgrp:tCCDL:tRTPL}
-rop_latency                          120 # ROP queue latency (default 85)
-dram_latency                         100 # DRAM latency (default 30)
-gpgpu_mem_addr_mapping dramid@8;00000000.00000000.00000000.00000000.0000RRRR.RRRRRRRR.BBBCCCCB.CCSSSSSS # mapping memory address to dram model {dramid@<start bit>;<memory address map>}
-gpgpu_mem_addr_test                    0 # run sweep test to check address mapping for aliased address
-gpgpu_mem_address_mask                    1 # 0 = old addressing mask, 1 = new addressing mask, 2 = new add. mask + flipped bank sel and chip sel bits
-gpuwattch_xml_file  gpuwattch_gtx480.xml # GPUWattch XML file
-power_simulation_enabled                    1 # Turn on power simulator (1=On, 0=Off)
-power_per_cycle_dump                    0 # Dump detailed power output each cycle
-power_trace_enabled                    0 # produce a file for the power trace (1=On, 0=Off)
-power_trace_zlevel                     6 # Compression level of the power trace output log (0=no comp, 9=highest)
-steady_power_levels_enabled                    0 # produce a file for the steady power levels (1=On, 0=Off)
-steady_state_definition                  8:4 # allowed deviation:number of samples
-gpgpu_max_cycle                        0 # terminates gpu simulation early (0 = no limit)
-gpgpu_max_insn                         0 # terminates gpu simulation early (0 = no limit)
-gpgpu_max_cta                          0 # terminates gpu simulation early (0 = no limit)
-gpgpu_runtime_stat                   500 # display runtime statistics such as dram utilization {<freq>:<flag>}
-liveness_message_freq                    1 # Minimum number of seconds between simulation liveness messages (0 = always print)
-gpgpu_flush_l1_cache                    0 # Flush L1 cache at the end of each kernel call
-gpgpu_flush_l2_cache                    0 # Flush L2 cache at the end of each kernel call
-gpgpu_deadlock_detect                    1 # Stop the simulation at deadlock (1=on (default), 0=off)
-gpgpu_ptx_instruction_classification                    0 # if enabled will classify ptx instruction types per kernel (Max 255 kernels now)
-gpgpu_ptx_sim_mode                     0 # Select between Performance (default) or Functional simulation (1)
-gpgpu_clock_domains 700.0:700.0:700.0:924.0 # Clock Domain Frequencies in MhZ {<Core Clock>:<ICNT Clock>:<L2 Clock>:<DRAM Clock>}
-gpgpu_max_concurrent_kernel                    8 # maximum kernels that can run concurrently on GPU
-gpgpu_cflog_interval                    0 # Interval between each snapshot in control flow logger
-visualizer_enabled                     0 # Turn on visualizer output (1=On, 0=Off)
-visualizer_outputfile                 NULL # Specifies the output log file for visualizer
-visualizer_zlevel                      6 # Compression level of the visualizer output log (0=no comp, 9=highest)
-trace_enabled                          0 # Turn on traces
-trace_components                    none # comma seperated list of traces to enable. Complete list found in trace_streams.tup. Default none
-trace_sampling_core                    0 # The core which is printed using CORE_DPRINTF. Default 0
-trace_sampling_memory_partition                   -1 # The memory partition which is printed using MEMPART_DPRINTF. Default -1 (i.e. all)
-enable_ptx_file_line_stats                    1 # Turn on PTX source line statistic profiling. (1 = On)
-ptx_line_stats_filename gpgpu_inst_stats.txt # Output file for PTX source line statistics.
-save_embedded_ptx                      0 # saves ptx files embedded in binary as <n>.ptx
-keep                                   0 # keep intermediate files created by GPGPU-Sim when interfacing with external programs
-gpgpu_ptx_save_converted_ptxplus                    0 # Saved converted ptxplus to a file
-ptx_opcode_latency_int         4,13,4,5,145 # Opcode latencies for integers <ADD,MAX,MUL,MAD,DIV>Default 1,1,19,25,145
-ptx_opcode_latency_fp          4,13,4,5,39 # Opcode latencies for single precision floating points <ADD,MAX,MUL,MAD,DIV>Default 1,1,1,1,30
-ptx_opcode_latency_dp         8,19,8,8,330 # Opcode latencies for double precision floating points <ADD,MAX,MUL,MAD,DIV>Default 8,8,8,8,335
-ptx_opcode_initiation_int            1,2,2,1,8 # Opcode initiation intervals for integers <ADD,MAX,MUL,MAD,DIV>Default 1,1,4,4,32
-ptx_opcode_initiation_fp            1,2,1,1,4 # Opcode initiation intervals for single precision floating points <ADD,MAX,MUL,MAD,DIV>Default 1,1,1,1,5
-ptx_opcode_initiation_dp         8,16,8,8,130 # Opcode initiation intervals for double precision floating points <ADD,MAX,MUL,MAD,DIV>Default 8,8,8,8,130
DRAM Timing Options:
nbk                                    16 # number of banks
CCD                                     2 # column to column delay
RRD                                     6 # minimal delay between activation of rows in different banks
RCD                                    12 # row to column delay
RAS                                    28 # time needed to activate row
RP                                     12 # time needed to precharge (deactivate) row
RC                                     40 # row cycle time
CDLR                                    5 # switching from write to read (changes tWTR)
WR                                     12 # last data-in to row precharge
CL                                     12 # CAS latency
WL                                      4 # Write latency
nbkgrp                                  4 # number of bank groups
CCDL                                    3 # column to column delay between accesses to different bank groups
RTPL                                    2 # read to precharge delay between accesses to different bank groups
Total number of memory sub partition = 12
addr_dec_mask[CHIP]  = 0000000000000000 	high:64 low:0
addr_dec_mask[BK]    = 000000000000e100 	high:16 low:8
addr_dec_mask[ROW]   = 000000000fff0000 	high:28 low:16
addr_dec_mask[COL]   = 0000000000001eff 	high:13 low:0
addr_dec_mask[BURST] = 000000000000003f 	high:6 low:0
sub_partition_id_mask = 0000000000000100
GPGPU-Sim uArch: clock freqs: 700000000.000000:700000000.000000:700000000.000000:924000000.000000
GPGPU-Sim uArch: clock periods: 0.00000000142857142857:0.00000000142857142857:0.00000000142857142857:0.00000000108225108225
*** Initializing Memory Statistics ***
GPGPU-Sim uArch: interconnect node map (shaderID+MemID to icntID)
GPGPU-Sim uArch: Memory nodes ID start from index: 15
GPGPU-Sim uArch:    0   1   2   3   4
GPGPU-Sim uArch:    5   6   7   8   9
GPGPU-Sim uArch:   10  11  12  13  14
GPGPU-Sim uArch:   15  16  17  18  19
GPGPU-Sim uArch:   20  21  22  23  24
GPGPU-Sim uArch:   25  26
GPGPU-Sim uArch: interconnect node reverse map (icntID to shaderID+MemID)
GPGPU-Sim uArch: Memory nodes start from ID: 15
GPGPU-Sim uArch:    0   1   2   3   4
GPGPU-Sim uArch:    5   6   7   8   9
GPGPU-Sim uArch:   10  11  12  13  14
GPGPU-Sim uArch:   15  16  17  18  19
GPGPU-Sim uArch:   20  21  22  23  24
GPGPU-Sim uArch:   25  26
328a61d178d3e8b45ddd3c2e89e11ce0  /home/scratch/adwait/applications/benchmarks/CUDA/SCP/gpgpu_ptx_sim__SCP
GPGPU-Sim uArch: performance model initialization complete.
GPGPU-Sim PTX: __cudaRegisterFatBinary, fat_cubin_handle = 1, filename=scalarProd.cu
self exe links to: /home/scratch/adwait/applications/benchmarks/CUDA/SCP/gpgpu_ptx_sim__SCP
Running md5sum using "md5sum /home/scratch/adwait/applications/benchmarks/CUDA/SCP/gpgpu_ptx_sim__SCP "
Running cuobjdump using "$CUDA_INSTALL_PATH/bin/cuobjdump -ptx -elf -sass /home/scratch/adwait/applications/benchmarks/CUDA/SCP/gpgpu_ptx_sim__SCP > _cuobjdump_complete_output_UkvIt8"
Parsing file _cuobjdump_complete_output_UkvIt8
######### cuobjdump parser ########
## Adding new section ELF
Adding arch: sm_20
Adding identifier: scalarProd.cu
## Adding new section PTX
Adding ptx filename: _cuobjdump_1.ptx
Adding arch: sm_20
Adding identifier: scalarProd.cu
Done parsing!!!
GPGPU-Sim PTX: __cudaRegisterFunction _Z13scalarProdGPUPfS_S_ii : hostFun 0x0x40483d, fat_cubin_handle = 1
GPGPU-Sim PTX: allocating shared region for "__cuda___cuda_local_var_42747_35_non_const_accumResult32" from 0x0 to 0x1000 (shared memory space)
GPGPU-Sim PTX: instruction assembly for function '_Z13scalarProdGPUPfS_S_ii'...   done.
GPGPU-Sim PTX: finding reconvergence points for '_Z13scalarProdGPUPfS_S_ii'...
GPGPU-Sim PTX: Finding dominators for '_Z13scalarProdGPUPfS_S_ii'...
GPGPU-Sim PTX: Finding immediate dominators for '_Z13scalarProdGPUPfS_S_ii'...
GPGPU-Sim PTX: Finding postdominators for '_Z13scalarProdGPUPfS_S_ii'...
GPGPU-Sim PTX: Finding immediate postdominators for '_Z13scalarProdGPUPfS_S_ii'...
GPGPU-Sim PTX: pre-decoding instructions for '_Z13scalarProdGPUPfS_S_ii'...
GPGPU-Sim PTX: reconvergence points for _Z13scalarProdGPUPfS_S_ii...
GPGPU-Sim PTX:  1 (potential) branch divergence @  PC=0x020 (_1.ptx:70) @%p1 bra $Lt_0_6146;
GPGPU-Sim PTX:    immediate post dominator      @  PC=0x308 (_1.ptx:187) exit;
GPGPU-Sim PTX:  2 (potential) branch divergence @  PC=0x068 (_1.ptx:81) @!%p2 bra $Lt_0_6914;
GPGPU-Sim PTX:    immediate post dominator      @  PC=0x1d8 (_1.ptx:137) mov.s32 %r25, 512;
GPGPU-Sim PTX:  3 (potential) branch divergence @  PC=0x0e0 (_1.ptx:99) @%p4 bra $Lt_0_12290;
GPGPU-Sim PTX:    immediate post dominator      @  PC=0x1b0 (_1.ptx:131) st.shared.f32 [%rd6+0], %f1;
GPGPU-Sim PTX:  4 (potential) branch divergence @  PC=0x198 (_1.ptx:125) @%p5 bra $Lt_0_8194;
GPGPU-Sim PTX:    immediate post dominator      @  PC=0x1a0 (_1.ptx:126) bra.uni $Lt_0_7682;
GPGPU-Sim PTX:  5 (potential) branch divergence @  PC=0x1a0 (_1.ptx:126) bra.uni $Lt_0_7682;
GPGPU-Sim PTX:    immediate post dominator      @  PC=0x1b0 (_1.ptx:131) st.shared.f32 [%rd6+0], %f1;
GPGPU-Sim PTX:  6 (potential) branch divergence @  PC=0x1d0 (_1.ptx:135) @%p6 bra $Lt_0_7426;
GPGPU-Sim PTX:    immediate post dominator      @  PC=0x1d8 (_1.ptx:137) mov.s32 %r25, 512;
GPGPU-Sim PTX:  7 (potential) branch divergence @  PC=0x1f0 (_1.ptx:143) @%p7 bra $Lt_0_9730;
GPGPU-Sim PTX:    immediate post dominator      @  PC=0x298 (_1.ptx:169) shr.s32 %r25, %r25, 1;
GPGPU-Sim PTX:  8 (potential) branch divergence @  PC=0x290 (_1.ptx:166) @%p8 bra $Lt_0_10242;
GPGPU-Sim PTX:    immediate post dominator      @  PC=0x298 (_1.ptx:169) shr.s32 %r25, %r25, 1;
GPGPU-Sim PTX:  9 (potential) branch divergence @  PC=0x2b0 (_1.ptx:172) @%p9 bra $Lt_0_9474;
GPGPU-Sim PTX:    immediate post dominator      @  PC=0x2b8 (_1.ptx:173) @!%p3 bra $Lt_0_11010;
GPGPU-Sim PTX: 10 (potential) branch divergence @  PC=0x2b8 (_1.ptx:173) @!%p3 bra $Lt_0_11010;
GPGPU-Sim PTX:    immediate post dominator      @  PC=0x2f0 (_1.ptx:182) add.u32 %r2, %r2, %r8;
GPGPU-Sim PTX: 11 (potential) branch divergence @  PC=0x300 (_1.ptx:184) @%p10 bra $Lt_0_6658;
GPGPU-Sim PTX:    immediate post dominator      @  PC=0x308 (_1.ptx:187) exit;
GPGPU-Sim PTX: ... end of reconvergence points for _Z13scalarProdGPUPfS_S_ii
GPGPU-Sim PTX: ... done pre-decoding instructions for '_Z13scalarProdGPUPfS_S_ii'.
GPGPU-Sim PTX: finished parsing EMBEDDED .ptx file _1.ptx
Adding _cuobjdump_1.ptx with cubin handle 1
GPGPU-Sim PTX: extracting embedded .ptx to temporary file "_ptx_M5WocR"
Running: cat _ptx_M5WocR | sed 's/.version 1.5/.version 1.4/' | sed 's/, texmode_independent//' | sed 's/\(\.extern \.const\[1\] .b8 \w\+\)\[\]/\1\[1\]/' | sed 's/const\[.\]/const\[0\]/g' > _ptx2_THMkVz
GPGPU-Sim PTX: generating ptxinfo using "$CUDA_INSTALL_PATH/bin/ptxas --gpu-name=sm_20 -v _ptx2_THMkVz --output-file  /dev/null 2> _ptx_M5WocRinfo"
GPGPU-Sim PTX: Kernel '_Z13scalarProdGPUPfS_S_ii' : regs=18, lmem=0, smem=4096, cmem=68
GPGPU-Sim PTX: removing ptxinfo using "rm -f _ptx_M5WocR _ptx2_THMkVz _ptx_M5WocRinfo"
GPGPU-Sim PTX: loading globals with explicit initializers... 
GPGPU-Sim PTX: finished loading globals (0 bytes total).
GPGPU-Sim PTX: loading constants with explicit initializers...  done.
Initializing data...
...allocating CPU memory.
...allocating GPU memory.
...generating input data in CPU mem.
...copying input data to GPU mem.
Data init done.
Executing GPU kernel...
GPGPU-Sim: synchronize waiting for inactive GPU simulation
GPGPU-Sim API: Stream Manager State
GPGPU-Sim: detected inactive GPU simulation thread

GPGPU-Sim PTX: cudaLaunch for 0x0x40483d (mode=performance simulation) on stream 0
GPGPU-Sim PTX: pushing kernel '_Z13scalarProdGPUPfS_S_ii' to stream 0, gridDim= (128,1,1) blockDim = (256,1,1) 
kernel '_Z13scalarProdGPUPfS_S_ii' transfer to GPU hardware scheduler
GPGPU-Sim uArch: Shader 1 bind to kernel 1 '_Z13scalarProdGPUPfS_S_ii'
GPGPU-Sim uArch: CTA/core = 6, limited by: threads regs
GPGPU-Sim uArch: core:  1, cta: 0 initialized @(1,0)
GPGPU-Sim uArch: Shader 2 bind to kernel 1 '_Z13scalarProdGPUPfS_S_ii'
GPGPU-Sim uArch: core:  2, cta: 0 initialized @(1,0)
GPGPU-Sim uArch: Shader 3 bind to kernel 1 '_Z13scalarProdGPUPfS_S_ii'
GPGPU-Sim uArch: core:  3, cta: 0 initialized @(1,0)
GPGPU-Sim uArch: Shader 4 bind to kernel 1 '_Z13scalarProdGPUPfS_S_ii'
GPGPU-Sim uArch: core:  4, cta: 0 initialized @(1,0)
GPGPU-Sim uArch: Shader 5 bind to kernel 1 '_Z13scalarProdGPUPfS_S_ii'
GPGPU-Sim uArch: core:  5, cta: 0 initialized @(1,0)
GPGPU-Sim uArch: Shader 6 bind to kernel 1 '_Z13scalarProdGPUPfS_S_ii'
GPGPU-Sim uArch: core:  6, cta: 0 initialized @(1,0)
GPGPU-Sim uArch: Shader 7 bind to kernel 1 '_Z13scalarProdGPUPfS_S_ii'
GPGPU-Sim uArch: core:  7, cta: 0 initialized @(1,0)
GPGPU-Sim uArch: Shader 8 bind to kernel 1 '_Z13scalarProdGPUPfS_S_ii'
GPGPU-Sim uArch: core:  8, cta: 0 initialized @(1,0)
GPGPU-Sim uArch: Shader 9 bind to kernel 1 '_Z13scalarProdGPUPfS_S_ii'
GPGPU-Sim uArch: core:  9, cta: 0 initialized @(1,0)
GPGPU-Sim uArch: Shader 10 bind to kernel 1 '_Z13scalarProdGPUPfS_S_ii'
GPGPU-Sim uArch: core: 10, cta: 0 initialized @(1,0)
GPGPU-Sim uArch: Shader 11 bind to kernel 1 '_Z13scalarProdGPUPfS_S_ii'
GPGPU-Sim uArch: core: 11, cta: 0 initialized @(1,0)
GPGPU-Sim uArch: Shader 12 bind to kernel 1 '_Z13scalarProdGPUPfS_S_ii'
GPGPU-Sim uArch: core: 12, cta: 0 initialized @(1,0)
GPGPU-Sim uArch: Shader 13 bind to kernel 1 '_Z13scalarProdGPUPfS_S_ii'
GPGPU-Sim uArch: core: 13, cta: 0 initialized @(1,0)
GPGPU-Sim uArch: Shader 14 bind to kernel 1 '_Z13scalarProdGPUPfS_S_ii'
GPGPU-Sim uArch: core: 14, cta: 0 initialized @(1,0)
GPGPU-Sim uArch: Shader 0 bind to kernel 1 '_Z13scalarProdGPUPfS_S_ii'
GPGPU-Sim uArch: core:  0, cta: 0 initialized @(1,0)
GPGPU-Sim uArch: core:  1, cta: 1 initialized @(2,0)
GPGPU-Sim uArch: core:  2, cta: 1 initialized @(2,0)
GPGPU-Sim uArch: core:  3, cta: 1 initialized @(2,0)
GPGPU-Sim uArch: core:  4, cta: 1 initialized @(2,0)
GPGPU-Sim uArch: core:  5, cta: 1 initialized @(2,0)
GPGPU-Sim uArch: core:  6, cta: 1 initialized @(2,0)
GPGPU-Sim uArch: core:  7, cta: 1 initialized @(2,0)
GPGPU-Sim uArch: core:  8, cta: 1 initialized @(2,0)
GPGPU-Sim uArch: core:  9, cta: 1 initialized @(2,0)
GPGPU-Sim uArch: core: 10, cta: 1 initialized @(2,0)
GPGPU-Sim uArch: core: 11, cta: 1 initialized @(2,0)
GPGPU-Sim uArch: core: 12, cta: 1 initialized @(2,0)
GPGPU-Sim uArch: core: 13, cta: 1 initialized @(2,0)
GPGPU-Sim uArch: core: 14, cta: 1 initialized @(2,0)
GPGPU-Sim uArch: core:  0, cta: 1 initialized @(2,0)
GPGPU-Sim uArch: core:  1, cta: 2 initialized @(3,0)
GPGPU-Sim uArch: core:  2, cta: 2 initialized @(3,0)
GPGPU-Sim uArch: core:  3, cta: 2 initialized @(3,0)
GPGPU-Sim uArch: core:  4, cta: 2 initialized @(3,0)
GPGPU-Sim uArch: core:  5, cta: 2 initialized @(3,0)
GPGPU-Sim uArch: core:  6, cta: 2 initialized @(3,0)
GPGPU-Sim uArch: core:  7, cta: 2 initialized @(3,0)
GPGPU-Sim uArch: core:  8, cta: 2 initialized @(3,0)
GPGPU-Sim uArch: core:  9, cta: 2 initialized @(3,0)
GPGPU-Sim uArch: core: 10, cta: 2 initialized @(3,0)
GPGPU-Sim uArch: core: 11, cta: 2 initialized @(3,0)
GPGPU-Sim uArch: core: 12, cta: 2 initialized @(3,0)
GPGPU-Sim uArch: core: 13, cta: 2 initialized @(3,0)
GPGPU-Sim uArch: core: 14, cta: 2 initialized @(3,0)
GPGPU-Sim uArch: core:  0, cta: 2 initialized @(3,0)
GPGPU-Sim uArch: core:  1, cta: 3 initialized @(4,0)
GPGPU-Sim uArch: core:  2, cta: 3 initialized @(4,0)
GPGPU-Sim uArch: core:  3, cta: 3 initialized @(4,0)
GPGPU-Sim uArch: core:  4, cta: 3 initialized @(4,0)
GPGPU-Sim uArch: core:  5, cta: 3 initialized @(4,0)
GPGPU-Sim uArch: core:  6, cta: 3 initialized @(4,0)
GPGPU-Sim uArch: core:  7, cta: 3 initialized @(4,0)
GPGPU-Sim uArch: core:  8, cta: 3 initialized @(4,0)
GPGPU-Sim uArch: core:  9, cta: 3 initialized @(4,0)
GPGPU-Sim uArch: core: 10, cta: 3 initialized @(4,0)
GPGPU-Sim uArch: core: 11, cta: 3 initialized @(4,0)
GPGPU-Sim uArch: core: 12, cta: 3 initialized @(4,0)
GPGPU-Sim uArch: core: 13, cta: 3 initialized @(4,0)
GPGPU-Sim uArch: core: 14, cta: 3 initialized @(4,0)
GPGPU-Sim uArch: core:  0, cta: 3 initialized @(4,0)
GPGPU-Sim uArch: core:  1, cta: 4 initialized @(5,0)
GPGPU-Sim uArch: core:  2, cta: 4 initialized @(5,0)
GPGPU-Sim uArch: core:  3, cta: 4 initialized @(5,0)
GPGPU-Sim uArch: core:  4, cta: 4 initialized @(5,0)
GPGPU-Sim uArch: core:  5, cta: 4 initialized @(5,0)
GPGPU-Sim uArch: core:  6, cta: 4 initialized @(5,0)
GPGPU-Sim uArch: core:  7, cta: 4 initialized @(5,0)
GPGPU-Sim uArch: core:  8, cta: 4 initialized @(5,0)
GPGPU-Sim uArch: core:  9, cta: 4 initialized @(5,0)
GPGPU-Sim uArch: core: 10, cta: 4 initialized @(5,0)
GPGPU-Sim uArch: core: 11, cta: 4 initialized @(5,0)
GPGPU-Sim uArch: core: 12, cta: 4 initialized @(5,0)
GPGPU-Sim uArch: core: 13, cta: 4 initialized @(5,0)
GPGPU-Sim uArch: core: 14, cta: 4 initialized @(5,0)
GPGPU-Sim uArch: core:  0, cta: 4 initialized @(5,0)
GPGPU-Sim uArch: core:  1, cta: 5 initialized @(6,0)
GPGPU-Sim uArch: core:  2, cta: 5 initialized @(6,0)
GPGPU-Sim uArch: core:  3, cta: 5 initialized @(6,0)
GPGPU-Sim uArch: core:  4, cta: 5 initialized @(6,0)
GPGPU-Sim uArch: core:  5, cta: 5 initialized @(6,0)
GPGPU-Sim uArch: core:  6, cta: 5 initialized @(6,0)
GPGPU-Sim uArch: core:  7, cta: 5 initialized @(6,0)
GPGPU-Sim uArch: core:  8, cta: 5 initialized @(6,0)
GPGPU-Sim uArch: core:  9, cta: 5 initialized @(6,0)
GPGPU-Sim uArch: core: 10, cta: 5 initialized @(6,0)
GPGPU-Sim uArch: core: 11, cta: 5 initialized @(6,0)
GPGPU-Sim uArch: core: 12, cta: 5 initialized @(6,0)
GPGPU-Sim uArch: core: 13, cta: 5 initialized @(6,0)
GPGPU-Sim uArch: core: 14, cta: 5 initialized @(6,0)
GPGPU-Sim uArch: core:  0, cta: 5 initialized @(6,0)
GPGPU-Sim uArch: cycles simulated: 500  inst.: 46080 (ipc=92.2) sim_rate=46080 (inst/sec) elapsed = 0:0:00:01 / Tue Apr 16 16:55:29 2019
GPGPU-Sim PTX: 100000 instructions simulated : ctaid=(16,0,0) tid=(159,0,0)
GPGPU-Sim PTX: 200000 instructions simulated : ctaid=(49,0,0) tid=(127,0,0)
GPGPU-Sim PTX: 300000 instructions simulated : ctaid=(82,0,0) tid=(63,0,0)
GPGPU-Sim uArch: cycles simulated: 1000  inst.: 331456 (ipc=331.5) sim_rate=165728 (inst/sec) elapsed = 0:0:00:02 / Tue Apr 16 16:55:30 2019
GPGPU-Sim PTX: 400000 instructions simulated : ctaid=(71,0,0) tid=(223,0,0)
GPGPU-Sim PTX: 500000 instructions simulated : ctaid=(39,0,0) tid=(223,0,0)
GPGPU-Sim PTX: 600000 instructions simulated : ctaid=(22,0,0) tid=(31,0,0)
GPGPU-Sim PTX: 700000 instructions simulated : ctaid=(76,0,0) tid=(159,0,0)
GPGPU-Sim uArch: cycles simulated: 1500  inst.: 667232 (ipc=444.8) sim_rate=222410 (inst/sec) elapsed = 0:0:00:03 / Tue Apr 16 16:55:31 2019
GPGPU-Sim PTX: 800000 instructions simulated : ctaid=(13,0,0) tid=(31,0,0)
GPGPU-Sim PTX: 900000 instructions simulated : ctaid=(12,0,0) tid=(127,0,0)
GPGPU-Sim uArch: cycles simulated: 2000  inst.: 884032 (ipc=442.0) sim_rate=221008 (inst/sec) elapsed = 0:0:00:04 / Tue Apr 16 16:55:32 2019
GPGPU-Sim PTX: 1000000 instructions simulated : ctaid=(47,0,0) tid=(31,0,0)
GPGPU-Sim uArch: cycles simulated: 2500  inst.: 927296 (ipc=370.9) sim_rate=185459 (inst/sec) elapsed = 0:0:00:05 / Tue Apr 16 16:55:33 2019
GPGPU-Sim uArch: cycles simulated: 3500  inst.: 1008512 (ipc=288.1) sim_rate=168085 (inst/sec) elapsed = 0:0:00:06 / Tue Apr 16 16:55:34 2019
GPGPU-Sim PTX: 1100000 instructions simulated : ctaid=(27,0,0) tid=(31,0,0)
GPGPU-Sim uArch: cycles simulated: 4500  inst.: 1104832 (ipc=245.5) sim_rate=157833 (inst/sec) elapsed = 0:0:00:07 / Tue Apr 16 16:55:35 2019
GPGPU-Sim PTX: 1200000 instructions simulated : ctaid=(13,0,0) tid=(95,0,0)
GPGPU-Sim PTX: 1300000 instructions simulated : ctaid=(25,0,0) tid=(223,0,0)
GPGPU-Sim uArch: cycles simulated: 5500  inst.: 1262592 (ipc=229.6) sim_rate=157824 (inst/sec) elapsed = 0:0:00:08 / Tue Apr 16 16:55:36 2019
GPGPU-Sim PTX: 1400000 instructions simulated : ctaid=(6,0,0) tid=(255,0,0)
GPGPU-Sim PTX: 1500000 instructions simulated : ctaid=(9,0,0) tid=(63,0,0)
GPGPU-Sim uArch: cycles simulated: 6500  inst.: 1414912 (ipc=217.7) sim_rate=157212 (inst/sec) elapsed = 0:0:00:09 / Tue Apr 16 16:55:37 2019
GPGPU-Sim PTX: 1600000 instructions simulated : ctaid=(71,0,0) tid=(31,0,0)
GPGPU-Sim uArch: cycles simulated: 7500  inst.: 1558752 (ipc=207.8) sim_rate=155875 (inst/sec) elapsed = 0:0:00:10 / Tue Apr 16 16:55:38 2019
GPGPU-Sim PTX: 1700000 instructions simulated : ctaid=(43,0,0) tid=(31,0,0)
GPGPU-Sim PTX: 1800000 instructions simulated : ctaid=(38,0,0) tid=(63,0,0)
GPGPU-Sim uArch: cycles simulated: 8500  inst.: 1737920 (ipc=204.5) sim_rate=157992 (inst/sec) elapsed = 0:0:00:11 / Tue Apr 16 16:55:39 2019
GPGPU-Sim PTX: 1900000 instructions simulated : ctaid=(13,0,0) tid=(223,0,0)
GPGPU-Sim PTX: 2000000 instructions simulated : ctaid=(16,0,0) tid=(63,0,0)
GPGPU-Sim uArch: cycles simulated: 9500  inst.: 1908928 (ipc=200.9) sim_rate=159077 (inst/sec) elapsed = 0:0:00:12 / Tue Apr 16 16:55:40 2019
GPGPU-Sim PTX: 2100000 instructions simulated : ctaid=(45,0,0) tid=(95,0,0)
GPGPU-Sim uArch: cycles simulated: 10500  inst.: 2076736 (ipc=197.8) sim_rate=159748 (inst/sec) elapsed = 0:0:00:13 / Tue Apr 16 16:55:41 2019
GPGPU-Sim PTX: 2200000 instructions simulated : ctaid=(11,0,0) tid=(159,0,0)
GPGPU-Sim PTX: 2300000 instructions simulated : ctaid=(14,0,0) tid=(159,0,0)
GPGPU-Sim uArch: cycles simulated: 11500  inst.: 2250016 (ipc=195.7) sim_rate=160715 (inst/sec) elapsed = 0:0:00:14 / Tue Apr 16 16:55:42 2019
GPGPU-Sim PTX: 2400000 instructions simulated : ctaid=(41,0,0) tid=(95,0,0)
GPGPU-Sim PTX: 2500000 instructions simulated : ctaid=(7,0,0) tid=(223,0,0)
GPGPU-Sim uArch: cycles simulated: 12500  inst.: 2414112 (ipc=193.1) sim_rate=160940 (inst/sec) elapsed = 0:0:00:15 / Tue Apr 16 16:55:43 2019
GPGPU-Sim PTX: 2600000 instructions simulated : ctaid=(57,0,0) tid=(95,0,0)
GPGPU-Sim PTX: 2700000 instructions simulated : ctaid=(16,0,0) tid=(95,0,0)
GPGPU-Sim uArch: cycles simulated: 13500  inst.: 2574976 (ipc=190.7) sim_rate=160936 (inst/sec) elapsed = 0:0:00:16 / Tue Apr 16 16:55:44 2019
GPGPU-Sim PTX: 2800000 instructions simulated : ctaid=(22,0,0) tid=(31,0,0)
GPGPU-Sim uArch: cycles simulated: 14500  inst.: 2734432 (ipc=188.6) sim_rate=160848 (inst/sec) elapsed = 0:0:00:17 / Tue Apr 16 16:55:45 2019
GPGPU-Sim PTX: 2900000 instructions simulated : ctaid=(35,0,0) tid=(95,0,0)
GPGPU-Sim PTX: 3000000 instructions simulated : ctaid=(43,0,0) tid=(95,0,0)
GPGPU-Sim uArch: cycles simulated: 15500  inst.: 2901920 (ipc=187.2) sim_rate=161217 (inst/sec) elapsed = 0:0:00:18 / Tue Apr 16 16:55:46 2019
GPGPU-Sim PTX: 3100000 instructions simulated : ctaid=(39,0,0) tid=(31,0,0)
GPGPU-Sim uArch: cycles simulated: 16000  inst.: 2998048 (ipc=187.4) sim_rate=157792 (inst/sec) elapsed = 0:0:00:19 / Tue Apr 16 16:55:47 2019
GPGPU-Sim PTX: 3200000 instructions simulated : ctaid=(58,0,0) tid=(159,0,0)
GPGPU-Sim PTX: 3300000 instructions simulated : ctaid=(56,0,0) tid=(191,0,0)
GPGPU-Sim uArch: cycles simulated: 17000  inst.: 3230528 (ipc=190.0) sim_rate=161526 (inst/sec) elapsed = 0:0:00:20 / Tue Apr 16 16:55:48 2019
GPGPU-Sim PTX: 3400000 instructions simulated : ctaid=(66,0,0) tid=(95,0,0)
GPGPU-Sim PTX: 3500000 instructions simulated : ctaid=(16,0,0) tid=(127,0,0)
GPGPU-Sim PTX: 3600000 instructions simulated : ctaid=(46,0,0) tid=(95,0,0)
GPGPU-Sim uArch: cycles simulated: 18000  inst.: 3515232 (ipc=195.3) sim_rate=167392 (inst/sec) elapsed = 0:0:00:21 / Tue Apr 16 16:55:49 2019
GPGPU-Sim PTX: 3700000 instructions simulated : ctaid=(52,0,0) tid=(159,0,0)
GPGPU-Sim PTX: 3800000 instructions simulated : ctaid=(40,0,0) tid=(119,0,0)
GPGPU-Sim uArch: cycles simulated: 18500  inst.: 3668816 (ipc=198.3) sim_rate=166764 (inst/sec) elapsed = 0:0:00:22 / Tue Apr 16 16:55:50 2019
GPGPU-Sim PTX: 3900000 instructions simulated : ctaid=(56,0,0) tid=(15,0,0)
GPGPU-Sim PTX: 4000000 instructions simulated : ctaid=(75,0,0) tid=(133,0,0)
GPGPU-Sim uArch: cycles simulated: 19500  inst.: 3903864 (ipc=200.2) sim_rate=169733 (inst/sec) elapsed = 0:0:00:23 / Tue Apr 16 16:55:51 2019
GPGPU-Sim PTX: 4100000 instructions simulated : ctaid=(52,0,0) tid=(71,0,0)
GPGPU-Sim PTX: 4200000 instructions simulated : ctaid=(88,0,0) tid=(172,0,0)
GPGPU-Sim PTX: 4300000 instructions simulated : ctaid=(51,0,0) tid=(119,0,0)
GPGPU-Sim PTX: 4400000 instructions simulated : ctaid=(13,0,0) tid=(198,0,0)
GPGPU-Sim uArch: cycles simulated: 20500  inst.: 4221885 (ipc=205.9) sim_rate=175911 (inst/sec) elapsed = 0:0:00:24 / Tue Apr 16 16:55:52 2019
GPGPU-Sim PTX: 4500000 instructions simulated : ctaid=(68,0,0) tid=(72,0,0)
GPGPU-Sim uArch: cycles simulated: 21000  inst.: 4379697 (ipc=208.6) sim_rate=175187 (inst/sec) elapsed = 0:0:00:25 / Tue Apr 16 16:55:53 2019
GPGPU-Sim PTX: 4600000 instructions simulated : ctaid=(71,0,0) tid=(137,0,0)
GPGPU-Sim PTX: 4700000 instructions simulated : ctaid=(57,0,0) tid=(229,0,0)
GPGPU-Sim PTX: 4800000 instructions simulated : ctaid=(1,0,0) tid=(219,0,0)
GPGPU-Sim PTX: 4900000 instructions simulated : ctaid=(71,0,0) tid=(0,0,0)
GPGPU-Sim uArch: cycles simulated: 22000  inst.: 4691523 (ipc=213.3) sim_rate=180443 (inst/sec) elapsed = 0:0:00:26 / Tue Apr 16 16:55:54 2019
GPGPU-Sim PTX: 5000000 instructions simulated : ctaid=(32,0,0) tid=(231,0,0)
GPGPU-Sim uArch: cycles simulated: 22500  inst.: 4835581 (ipc=214.9) sim_rate=179095 (inst/sec) elapsed = 0:0:00:27 / Tue Apr 16 16:55:55 2019
GPGPU-Sim PTX: 5100000 instructions simulated : ctaid=(52,0,0) tid=(213,0,0)
GPGPU-Sim PTX: 5200000 instructions simulated : ctaid=(76,0,0) tid=(45,0,0)
GPGPU-Sim PTX: 5300000 instructions simulated : ctaid=(26,0,0) tid=(19,0,0)
GPGPU-Sim PTX: 5400000 instructions simulated : ctaid=(52,0,0) tid=(208,0,0)
GPGPU-Sim uArch: cycles simulated: 23500  inst.: 5159826 (ipc=219.6) sim_rate=184279 (inst/sec) elapsed = 0:0:00:28 / Tue Apr 16 16:55:56 2019
GPGPU-Sim PTX: 5500000 instructions simulated : ctaid=(25,0,0) tid=(127,0,0)
GPGPU-Sim uArch: cycles simulated: 24000  inst.: 5322856 (ipc=221.8) sim_rate=183546 (inst/sec) elapsed = 0:0:00:29 / Tue Apr 16 16:55:57 2019
GPGPU-Sim PTX: 5600000 instructions simulated : ctaid=(29,0,0) tid=(148,0,0)
GPGPU-Sim PTX: 5700000 instructions simulated : ctaid=(85,0,0) tid=(153,0,0)
GPGPU-Sim PTX: 5800000 instructions simulated : ctaid=(34,0,0) tid=(231,0,0)
GPGPU-Sim uArch: cycles simulated: 25000  inst.: 5566596 (ipc=222.7) sim_rate=185553 (inst/sec) elapsed = 0:0:00:30 / Tue Apr 16 16:55:58 2019
GPGPU-Sim PTX: 5900000 instructions simulated : ctaid=(25,0,0) tid=(91,0,0)
GPGPU-Sim uArch: cycles simulated: 25500  inst.: 5673949 (ipc=222.5) sim_rate=183030 (inst/sec) elapsed = 0:0:00:31 / Tue Apr 16 16:55:59 2019
GPGPU-Sim PTX: 6000000 instructions simulated : ctaid=(20,0,0) tid=(138,0,0)
GPGPU-Sim PTX: 6100000 instructions simulated : ctaid=(83,0,0) tid=(85,0,0)
GPGPU-Sim PTX: 6200000 instructions simulated : ctaid=(86,0,0) tid=(22,0,0)
GPGPU-Sim uArch: cycles simulated: 26500  inst.: 5946178 (ipc=224.4) sim_rate=185818 (inst/sec) elapsed = 0:0:00:32 / Tue Apr 16 16:56:00 2019
GPGPU-Sim PTX: 6300000 instructions simulated : ctaid=(58,0,0) tid=(177,0,0)
GPGPU-Sim PTX: 6400000 instructions simulated : ctaid=(43,0,0) tid=(35,0,0)
GPGPU-Sim PTX: 6500000 instructions simulated : ctaid=(78,0,0) tid=(19,0,0)
GPGPU-Sim uArch: cycles simulated: 27500  inst.: 6215074 (ipc=226.0) sim_rate=188335 (inst/sec) elapsed = 0:0:00:33 / Tue Apr 16 16:56:01 2019
GPGPU-Sim PTX: 6600000 instructions simulated : ctaid=(17,0,0) tid=(158,0,0)
GPGPU-Sim uArch: cycles simulated: 28000  inst.: 6327675 (ipc=226.0) sim_rate=186108 (inst/sec) elapsed = 0:0:00:34 / Tue Apr 16 16:56:02 2019
GPGPU-Sim PTX: 6700000 instructions simulated : ctaid=(13,0,0) tid=(31,0,0)
GPGPU-Sim PTX: 6800000 instructions simulated : ctaid=(0,0,0) tid=(209,0,0)
GPGPU-Sim uArch: cycles simulated: 29000  inst.: 6553501 (ipc=226.0) sim_rate=187242 (inst/sec) elapsed = 0:0:00:35 / Tue Apr 16 16:56:03 2019
GPGPU-Sim PTX: 6900000 instructions simulated : ctaid=(57,0,0) tid=(33,0,0)
GPGPU-Sim PTX: 7000000 instructions simulated : ctaid=(6,0,0) tid=(95,0,0)
GPGPU-Sim PTX: 7100000 instructions simulated : ctaid=(73,0,0) tid=(183,0,0)
GPGPU-Sim uArch: cycles simulated: 30000  inst.: 6798578 (ipc=226.6) sim_rate=188849 (inst/sec) elapsed = 0:0:00:36 / Tue Apr 16 16:56:04 2019
GPGPU-Sim PTX: 7200000 instructions simulated : ctaid=(4,0,0) tid=(231,0,0)
GPGPU-Sim PTX: 7300000 instructions simulated : ctaid=(36,0,0) tid=(12,0,0)
GPGPU-Sim uArch: cycles simulated: 31000  inst.: 7047642 (ipc=227.3) sim_rate=190476 (inst/sec) elapsed = 0:0:00:37 / Tue Apr 16 16:56:05 2019
GPGPU-Sim PTX: 7400000 instructions simulated : ctaid=(40,0,0) tid=(99,0,0)
GPGPU-Sim uArch: cycles simulated: 31500  inst.: 7152222 (ipc=227.1) sim_rate=188216 (inst/sec) elapsed = 0:0:00:38 / Tue Apr 16 16:56:06 2019
GPGPU-Sim PTX: 7500000 instructions simulated : ctaid=(54,0,0) tid=(251,0,0)
GPGPU-Sim PTX: 7600000 instructions simulated : ctaid=(80,0,0) tid=(211,0,0)
GPGPU-Sim PTX: 7700000 instructions simulated : ctaid=(34,0,0) tid=(37,0,0)
GPGPU-Sim uArch: cycles simulated: 32500  inst.: 7410167 (ipc=228.0) sim_rate=190004 (inst/sec) elapsed = 0:0:00:39 / Tue Apr 16 16:56:07 2019
GPGPU-Sim PTX: 7800000 instructions simulated : ctaid=(18,0,0) tid=(92,0,0)
GPGPU-Sim PTX: 7900000 instructions simulated : ctaid=(36,0,0) tid=(74,0,0)
GPGPU-Sim PTX: 8000000 instructions simulated : ctaid=(68,0,0) tid=(33,0,0)
GPGPU-Sim PTX: 8100000 instructions simulated : ctaid=(35,0,0) tid=(247,0,0)
GPGPU-Sim uArch: cycles simulated: 33500  inst.: 7731758 (ipc=230.8) sim_rate=193293 (inst/sec) elapsed = 0:0:00:40 / Tue Apr 16 16:56:08 2019
GPGPU-Sim PTX: 8200000 instructions simulated : ctaid=(20,0,0) tid=(27,0,0)
GPGPU-Sim uArch: cycles simulated: 34000  inst.: 7883556 (ipc=231.9) sim_rate=192281 (inst/sec) elapsed = 0:0:00:41 / Tue Apr 16 16:56:09 2019
GPGPU-Sim PTX: 8300000 instructions simulated : ctaid=(10,0,0) tid=(209,0,0)
GPGPU-Sim PTX: 8400000 instructions simulated : ctaid=(23,0,0) tid=(81,0,0)
GPGPU-Sim PTX: 8500000 instructions simulated : ctaid=(76,0,0) tid=(155,0,0)
GPGPU-Sim uArch: cycles simulated: 35000  inst.: 8172251 (ipc=233.5) sim_rate=194577 (inst/sec) elapsed = 0:0:00:42 / Tue Apr 16 16:56:10 2019
GPGPU-Sim PTX: 8600000 instructions simulated : ctaid=(28,0,0) tid=(169,0,0)
GPGPU-Sim PTX: 8700000 instructions simulated : ctaid=(3,0,0) tid=(239,0,0)
GPGPU-Sim uArch: cycles simulated: 35500  inst.: 8359489 (ipc=235.5) sim_rate=194406 (inst/sec) elapsed = 0:0:00:43 / Tue Apr 16 16:56:11 2019
GPGPU-Sim PTX: 8800000 instructions simulated : ctaid=(40,0,0) tid=(159,0,0)
GPGPU-Sim PTX: 8900000 instructions simulated : ctaid=(2,0,0) tid=(122,0,0)
GPGPU-Sim uArch: Shader 14 finished CTA #0 (35939,0), 5 CTAs running
GPGPU-Sim uArch: core: 14, cta: 0 initialized @(35940,0)
GPGPU-Sim uArch: Shader 8 finished CTA #0 (35950,0), 5 CTAs running
GPGPU-Sim uArch: core:  8, cta: 0 initialized @(35951,0)
GPGPU-Sim PTX: 9000000 instructions simulated : ctaid=(34,0,0) tid=(218,0,0)
GPGPU-Sim uArch: cycles simulated: 36500  inst.: 8679930 (ipc=237.8) sim_rate=197271 (inst/sec) elapsed = 0:0:00:44 / Tue Apr 16 16:56:12 2019
GPGPU-Sim PTX: 9100000 instructions simulated : ctaid=(1,0,0) tid=(230,0,0)
GPGPU-Sim uArch: Shader 11 finished CTA #0 (36557,0), 5 CTAs running
GPGPU-Sim uArch: core: 11, cta: 0 initialized @(36558,0)
GPGPU-Sim PTX: 9200000 instructions simulated : ctaid=(60,0,0) tid=(248,0,0)
GPGPU-Sim uArch: Shader 1 finished CTA #0 (36933,0), 5 CTAs running
GPGPU-Sim uArch: core:  1, cta: 0 initialized @(36934,0)
GPGPU-Sim uArch: cycles simulated: 37000  inst.: 8851188 (ipc=239.2) sim_rate=196693 (inst/sec) elapsed = 0:0:00:45 / Tue Apr 16 16:56:13 2019
GPGPU-Sim PTX: 9300000 instructions simulated : ctaid=(12,0,0) tid=(36,0,0)
GPGPU-Sim PTX: 9400000 instructions simulated : ctaid=(6,0,0) tid=(4,0,0)
GPGPU-Sim PTX: 9500000 instructions simulated : ctaid=(22,0,0) tid=(41,0,0)
GPGPU-Sim PTX: 9600000 instructions simulated : ctaid=(2,0,0) tid=(232,0,0)
GPGPU-Sim PTX: 9700000 instructions simulated : ctaid=(6,0,0) tid=(154,0,0)
GPGPU-Sim uArch: cycles simulated: 38000  inst.: 9255371 (ipc=243.6) sim_rate=201203 (inst/sec) elapsed = 0:0:00:46 / Tue Apr 16 16:56:14 2019
GPGPU-Sim uArch: Shader 4 finished CTA #0 (38207,0), 5 CTAs running
GPGPU-Sim uArch: core:  4, cta: 0 initialized @(38208,0)
GPGPU-Sim PTX: 9800000 instructions simulated : ctaid=(50,0,0) tid=(222,0,0)
GPGPU-Sim uArch: Shader 9 finished CTA #0 (38328,0), 5 CTAs running
GPGPU-Sim uArch: core:  9, cta: 0 initialized @(38329,0)
GPGPU-Sim uArch: Shader 6 finished CTA #0 (38357,0), 5 CTAs running
GPGPU-Sim uArch: core:  6, cta: 0 initialized @(38358,0)
GPGPU-Sim uArch: Shader 14 finished CTA #1 (38435,0), 5 CTAs running
GPGPU-Sim uArch: core: 14, cta: 1 initialized @(38436,0)
GPGPU-Sim PTX: 9900000 instructions simulated : ctaid=(31,0,0) tid=(211,0,0)
GPGPU-Sim uArch: cycles simulated: 38500  inst.: 9459944 (ipc=245.7) sim_rate=201275 (inst/sec) elapsed = 0:0:00:47 / Tue Apr 16 16:56:15 2019
GPGPU-Sim uArch: Shader 7 finished CTA #0 (38602,0), 5 CTAs running
GPGPU-Sim uArch: core:  7, cta: 0 initialized @(38603,0)
GPGPU-Sim PTX: 10000000 instructions simulated : ctaid=(96,0,0) tid=(79,0,0)
GPGPU-Sim PTX: 10100000 instructions simulated : ctaid=(14,0,0) tid=(69,0,0)
GPGPU-Sim uArch: cycles simulated: 39000  inst.: 9636773 (ipc=247.1) sim_rate=200766 (inst/sec) elapsed = 0:0:00:48 / Tue Apr 16 16:56:16 2019
GPGPU-Sim uArch: Shader 5 finished CTA #0 (39278,0), 5 CTAs running
GPGPU-Sim uArch: core:  5, cta: 0 initialized @(39279,0)
GPGPU-Sim PTX: 10200000 instructions simulated : ctaid=(45,0,0) tid=(39,0,0)
GPGPU-Sim uArch: Shader 13 finished CTA #0 (39397,0), 5 CTAs running
GPGPU-Sim uArch: core: 13, cta: 0 initialized @(39398,0)
GPGPU-Sim PTX: 10300000 instructions simulated : ctaid=(32,0,0) tid=(249,0,0)
GPGPU-Sim PTX: 10400000 instructions simulated : ctaid=(16,0,0) tid=(171,0,0)
GPGPU-Sim uArch: Shader 10 finished CTA #0 (39879,0), 5 CTAs running
GPGPU-Sim uArch: core: 10, cta: 0 initialized @(39880,0)
GPGPU-Sim uArch: Shader 12 finished CTA #0 (39882,0), 5 CTAs running
GPGPU-Sim uArch: core: 12, cta: 0 initialized @(39883,0)
GPGPU-Sim uArch: cycles simulated: 40000  inst.: 9989324 (ipc=249.7) sim_rate=203863 (inst/sec) elapsed = 0:0:00:49 / Tue Apr 16 16:56:17 2019
GPGPU-Sim PTX: 10500000 instructions simulated : ctaid=(37,0,0) tid=(136,0,0)
GPGPU-Sim uArch: Shader 8 finished CTA #1 (40159,0), 5 CTAs running
GPGPU-Sim uArch: core:  8, cta: 1 initialized @(40160,0)
GPGPU-Sim PTX: 10600000 instructions simulated : ctaid=(85,0,0) tid=(183,0,0)
GPGPU-Sim uArch: Shader 3 finished CTA #0 (40333,0), 5 CTAs running
GPGPU-Sim uArch: core:  3, cta: 0 initialized @(40334,0)
GPGPU-Sim uArch: Shader 0 finished CTA #0 (40423,0), 5 CTAs running
GPGPU-Sim uArch: core:  0, cta: 0 initialized @(40424,0)
GPGPU-Sim PTX: 10700000 instructions simulated : ctaid=(29,0,0) tid=(154,0,0)
GPGPU-Sim uArch: cycles simulated: 40500  inst.: 10206819 (ipc=252.0) sim_rate=204136 (inst/sec) elapsed = 0:0:00:50 / Tue Apr 16 16:56:18 2019
GPGPU-Sim PTX: 10800000 instructions simulated : ctaid=(30,0,0) tid=(235,0,0)
GPGPU-Sim uArch: cycles simulated: 41000  inst.: 10381268 (ipc=253.2) sim_rate=203554 (inst/sec) elapsed = 0:0:00:51 / Tue Apr 16 16:56:19 2019
GPGPU-Sim PTX: 10900000 instructions simulated : ctaid=(21,0,0) tid=(119,0,0)
GPGPU-Sim PTX: 11000000 instructions simulated : ctaid=(29,0,0) tid=(46,0,0)
GPGPU-Sim uArch: Shader 2 finished CTA #0 (41325,0), 5 CTAs running
GPGPU-Sim uArch: core:  2, cta: 0 initialized @(41326,0)
GPGPU-Sim uArch: cycles simulated: 41500  inst.: 10585617 (ipc=255.1) sim_rate=203569 (inst/sec) elapsed = 0:0:00:52 / Tue Apr 16 16:56:20 2019
GPGPU-Sim PTX: 11100000 instructions simulated : ctaid=(18,0,0) tid=(58,0,0)
GPGPU-Sim PTX: 11200000 instructions simulated : ctaid=(36,0,0) tid=(175,0,0)
GPGPU-Sim PTX: 11300000 instructions simulated : ctaid=(21,0,0) tid=(6,0,0)
GPGPU-Sim PTX: 11400000 instructions simulated : ctaid=(38,0,0) tid=(161,0,0)
GPGPU-Sim PTX: 11500000 instructions simulated : ctaid=(106,0,0) tid=(237,0,0)
GPGPU-Sim uArch: cycles simulated: 42500  inst.: 11024927 (ipc=259.4) sim_rate=208017 (inst/sec) elapsed = 0:0:00:53 / Tue Apr 16 16:56:21 2019
GPGPU-Sim PTX: 11600000 instructions simulated : ctaid=(56,0,0) tid=(171,0,0)
GPGPU-Sim PTX: 11700000 instructions simulated : ctaid=(19,0,0) tid=(152,0,0)
GPGPU-Sim uArch: cycles simulated: 43000  inst.: 11181025 (ipc=260.0) sim_rate=207056 (inst/sec) elapsed = 0:0:00:54 / Tue Apr 16 16:56:22 2019
GPGPU-Sim uArch: Shader 9 finished CTA #1 (43181,0), 5 CTAs running
GPGPU-Sim uArch: core:  9, cta: 1 initialized @(43182,0)
GPGPU-Sim PTX: 11800000 instructions simulated : ctaid=(39,0,0) tid=(160,0,0)
GPGPU-Sim uArch: Shader 5 finished CTA #1 (43454,0), 5 CTAs running
GPGPU-Sim uArch: core:  5, cta: 1 initialized @(43455,0)
GPGPU-Sim uArch: Shader 1 finished CTA #1 (43462,0), 5 CTAs running
GPGPU-Sim uArch: core:  1, cta: 1 initialized @(43463,0)
GPGPU-Sim uArch: cycles simulated: 43500  inst.: 11335417 (ipc=260.6) sim_rate=206098 (inst/sec) elapsed = 0:0:00:55 / Tue Apr 16 16:56:23 2019
GPGPU-Sim PTX: 11900000 instructions simulated : ctaid=(82,0,0) tid=(120,0,0)
GPGPU-Sim uArch: Shader 7 finished CTA #1 (43843,0), 5 CTAs running
GPGPU-Sim uArch: core:  7, cta: 1 initialized @(43844,0)
GPGPU-Sim uArch: Shader 10 finished CTA #1 (43854,0), 5 CTAs running
GPGPU-Sim uArch: core: 10, cta: 1 initialized @(43855,0)
GPGPU-Sim PTX: 12000000 instructions simulated : ctaid=(36,0,0) tid=(186,0,0)
GPGPU-Sim uArch: Shader 0 finished CTA #1 (43922,0), 5 CTAs running
GPGPU-Sim uArch: core:  0, cta: 1 initialized @(43923,0)
GPGPU-Sim uArch: Shader 11 finished CTA #1 (43925,0), 5 CTAs running
GPGPU-Sim uArch: core: 11, cta: 1 initialized @(43926,0)
GPGPU-Sim PTX: 12100000 instructions simulated : ctaid=(111,0,0) tid=(3,0,0)
GPGPU-Sim PTX: 12200000 instructions simulated : ctaid=(111,0,0) tid=(195,0,0)
GPGPU-Sim uArch: cycles simulated: 44500  inst.: 11651662 (ipc=261.8) sim_rate=208065 (inst/sec) elapsed = 0:0:00:56 / Tue Apr 16 16:56:24 2019
GPGPU-Sim uArch: Shader 6 finished CTA #1 (44692,0), 5 CTAs running
GPGPU-Sim uArch: core:  6, cta: 1 initialized @(44693,0)
GPGPU-Sim PTX: 12300000 instructions simulated : ctaid=(56,0,0) tid=(78,0,0)
GPGPU-Sim uArch: Shader 3 finished CTA #1 (44895,0), 5 CTAs running
GPGPU-Sim uArch: core:  3, cta: 1 initialized @(44896,0)
GPGPU-Sim PTX: 12400000 instructions simulated : ctaid=(51,0,0) tid=(85,0,0)
GPGPU-Sim uArch: cycles simulated: 45000  inst.: 11832799 (ipc=263.0) sim_rate=207592 (inst/sec) elapsed = 0:0:00:57 / Tue Apr 16 16:56:25 2019
GPGPU-Sim uArch: Shader 4 finished CTA #1 (45057,0), 5 CTAs running
GPGPU-Sim uArch: core:  4, cta: 1 initialized @(45058,0)
GPGPU-Sim PTX: 12500000 instructions simulated : ctaid=(52,0,0) tid=(214,0,0)
GPGPU-Sim uArch: cycles simulated: 45500  inst.: 11989385 (ipc=263.5) sim_rate=206713 (inst/sec) elapsed = 0:0:00:58 / Tue Apr 16 16:56:26 2019
GPGPU-Sim PTX: 12600000 instructions simulated : ctaid=(73,0,0) tid=(239,0,0)
GPGPU-Sim uArch: Shader 12 finished CTA #1 (45687,0), 5 CTAs running
GPGPU-Sim uArch: core: 12, cta: 1 initialized @(45688,0)
GPGPU-Sim PTX: 12700000 instructions simulated : ctaid=(66,0,0) tid=(95,0,0)
GPGPU-Sim PTX: 12800000 instructions simulated : ctaid=(71,0,0) tid=(201,0,0)
GPGPU-Sim uArch: cycles simulated: 46500  inst.: 12288037 (ipc=264.3) sim_rate=208271 (inst/sec) elapsed = 0:0:00:59 / Tue Apr 16 16:56:27 2019
GPGPU-Sim PTX: 12900000 instructions simulated : ctaid=(36,0,0) tid=(221,0,0)
GPGPU-Sim PTX: 13000000 instructions simulated : ctaid=(43,0,0) tid=(43,0,0)
GPGPU-Sim uArch: cycles simulated: 47000  inst.: 12460667 (ipc=265.1) sim_rate=207677 (inst/sec) elapsed = 0:0:01:00 / Tue Apr 16 16:56:28 2019
GPGPU-Sim PTX: 13100000 instructions simulated : ctaid=(36,0,0) tid=(8,0,0)
GPGPU-Sim PTX: 13200000 instructions simulated : ctaid=(37,0,0) tid=(18,0,0)
GPGPU-Sim uArch: Shader 13 finished CTA #1 (47360,0), 5 CTAs running
GPGPU-Sim uArch: core: 13, cta: 1 initialized @(47361,0)
GPGPU-Sim uArch: cycles simulated: 47500  inst.: 12661650 (ipc=266.6) sim_rate=207568 (inst/sec) elapsed = 0:0:01:01 / Tue Apr 16 16:56:29 2019
GPGPU-Sim PTX: 13300000 instructions simulated : ctaid=(62,0,0) tid=(87,0,0)
GPGPU-Sim PTX: 13400000 instructions simulated : ctaid=(71,0,0) tid=(11,0,0)
GPGPU-Sim PTX: 13500000 instructions simulated : ctaid=(86,0,0) tid=(116,0,0)
GPGPU-Sim PTX: 13600000 instructions simulated : ctaid=(38,0,0) tid=(181,0,0)
GPGPU-Sim uArch: cycles simulated: 48500  inst.: 12997843 (ipc=268.0) sim_rate=209642 (inst/sec) elapsed = 0:0:01:02 / Tue Apr 16 16:56:30 2019
GPGPU-Sim PTX: 13700000 instructions simulated : ctaid=(97,0,0) tid=(4,0,0)
GPGPU-Sim uArch: Shader 14 finished CTA #2 (48714,0), 5 CTAs running
GPGPU-Sim uArch: core: 14, cta: 2 initialized @(48715,0)
GPGPU-Sim uArch: cycles simulated: 49000  inst.: 13156097 (ipc=268.5) sim_rate=208826 (inst/sec) elapsed = 0:0:01:03 / Tue Apr 16 16:56:31 2019
GPGPU-Sim PTX: 13800000 instructions simulated : ctaid=(60,0,0) tid=(119,0,0)
GPGPU-Sim PTX: 13900000 instructions simulated : ctaid=(59,0,0) tid=(123,0,0)
GPGPU-Sim uArch: Shader 11 finished CTA #2 (49608,0), 5 CTAs running
GPGPU-Sim uArch: core: 11, cta: 2 initialized @(49609,0)
GPGPU-Sim PTX: 14000000 instructions simulated : ctaid=(115,0,0) tid=(142,0,0)
GPGPU-Sim uArch: Shader 1 finished CTA #2 (49747,0), 5 CTAs running
GPGPU-Sim uArch: core:  1, cta: 2 initialized @(49748,0)
GPGPU-Sim PTX: 14100000 instructions simulated : ctaid=(99,0,0) tid=(113,0,0)
GPGPU-Sim uArch: cycles simulated: 50000  inst.: 13477989 (ipc=269.6) sim_rate=210593 (inst/sec) elapsed = 0:0:01:04 / Tue Apr 16 16:56:32 2019
GPGPU-Sim uArch: Shader 2 finished CTA #1 (50161,0), 5 CTAs running
GPGPU-Sim uArch: core:  2, cta: 1 initialized @(50162,0)
GPGPU-Sim PTX: 14200000 instructions simulated : ctaid=(45,0,0) tid=(246,0,0)
GPGPU-Sim uArch: Shader 8 finished CTA #2 (50289,0), 5 CTAs running
GPGPU-Sim uArch: core:  8, cta: 2 initialized @(50290,0)
GPGPU-Sim uArch: Shader 6 finished CTA #2 (50337,0), 5 CTAs running
GPGPU-Sim uArch: core:  6, cta: 2 initialized @(50338,0)
GPGPU-Sim uArch: cycles simulated: 50500  inst.: 13633087 (ipc=270.0) sim_rate=209739 (inst/sec) elapsed = 0:0:01:05 / Tue Apr 16 16:56:33 2019
GPGPU-Sim PTX: 14300000 instructions simulated : ctaid=(47,0,0) tid=(222,0,0)
GPGPU-Sim PTX: 14400000 instructions simulated : ctaid=(104,0,0) tid=(140,0,0)
GPGPU-Sim uArch: cycles simulated: 51000  inst.: 13815252 (ipc=270.9) sim_rate=209322 (inst/sec) elapsed = 0:0:01:06 / Tue Apr 16 16:56:34 2019
GPGPU-Sim uArch: Shader 5 finished CTA #2 (51043,0), 5 CTAs running
GPGPU-Sim uArch: core:  5, cta: 2 initialized @(51044,0)
GPGPU-Sim PTX: 14500000 instructions simulated : ctaid=(107,0,0) tid=(231,0,0)
GPGPU-Sim PTX: 14600000 instructions simulated : ctaid=(65,0,0) tid=(233,0,0)
GPGPU-Sim uArch: Shader 4 finished CTA #2 (51552,0), 5 CTAs running
GPGPU-Sim uArch: core:  4, cta: 2 initialized @(51553,0)
GPGPU-Sim PTX: 14700000 instructions simulated : ctaid=(61,0,0) tid=(239,0,0)
GPGPU-Sim uArch: Shader 7 finished CTA #2 (51845,0), 5 CTAs running
GPGPU-Sim uArch: core:  7, cta: 2 initialized @(51846,0)
GPGPU-Sim uArch: Shader 3 finished CTA #2 (51847,0), 5 CTAs running
GPGPU-Sim uArch: cycles simulated: 52000  inst.: 14103275 (ipc=271.2) sim_rate=210496 (inst/sec) elapsed = 0:0:01:07 / Tue Apr 16 16:56:35 2019
GPGPU-Sim PTX: 14800000 instructions simulated : ctaid=(66,0,0) tid=(137,0,0)
GPGPU-Sim PTX: 14900000 instructions simulated : ctaid=(47,0,0) tid=(108,0,0)
GPGPU-Sim uArch: cycles simulated: 52500  inst.: 14266918 (ipc=271.8) sim_rate=209807 (inst/sec) elapsed = 0:0:01:08 / Tue Apr 16 16:56:36 2019
GPGPU-Sim uArch: Shader 9 finished CTA #2 (52558,0), 5 CTAs running
GPGPU-Sim PTX: 15000000 instructions simulated : ctaid=(62,0,0) tid=(192,0,0)
GPGPU-Sim PTX: 15100000 instructions simulated : ctaid=(51,0,0) tid=(41,0,0)
GPGPU-Sim uArch: Shader 10 finished CTA #2 (53290,0), 5 CTAs running
GPGPU-Sim PTX: 15200000 instructions simulated : ctaid=(45,0,0) tid=(99,0,0)
GPGPU-Sim uArch: Shader 12 finished CTA #2 (53319,0), 5 CTAs running
GPGPU-Sim uArch: cycles simulated: 53500  inst.: 14566439 (ipc=272.3) sim_rate=211107 (inst/sec) elapsed = 0:0:01:09 / Tue Apr 16 16:56:37 2019
GPGPU-Sim PTX: 15300000 instructions simulated : ctaid=(48,0,0) tid=(102,0,0)
GPGPU-Sim uArch: Shader 0 finished CTA #2 (53797,0), 5 CTAs running
GPGPU-Sim PTX: 15400000 instructions simulated : ctaid=(67,0,0) tid=(187,0,0)
GPGPU-Sim uArch: cycles simulated: 54000  inst.: 14749131 (ipc=273.1) sim_rate=210701 (inst/sec) elapsed = 0:0:01:10 / Tue Apr 16 16:56:38 2019
GPGPU-Sim PTX: 15500000 instructions simulated : ctaid=(61,0,0) tid=(215,0,0)
GPGPU-Sim PTX: 15600000 instructions simulated : ctaid=(67,0,0) tid=(248,0,0)
GPGPU-Sim PTX: 15700000 instructions simulated : ctaid=(81,0,0) tid=(117,0,0)
GPGPU-Sim PTX: 15800000 instructions simulated : ctaid=(71,0,0) tid=(23,0,0)
GPGPU-Sim uArch: cycles simulated: 55000  inst.: 15103922 (ipc=274.6) sim_rate=212731 (inst/sec) elapsed = 0:0:01:11 / Tue Apr 16 16:56:39 2019
GPGPU-Sim PTX: 15900000 instructions simulated : ctaid=(57,0,0) tid=(181,0,0)
GPGPU-Sim PTX: 16000000 instructions simulated : ctaid=(79,0,0) tid=(105,0,0)
GPGPU-Sim uArch: cycles simulated: 55500  inst.: 15289845 (ipc=275.5) sim_rate=212358 (inst/sec) elapsed = 0:0:01:12 / Tue Apr 16 16:56:40 2019
GPGPU-Sim PTX: 16100000 instructions simulated : ctaid=(70,0,0) tid=(208,0,0)
GPGPU-Sim uArch: Shader 13 finished CTA #2 (55872,0), 5 CTAs running
GPGPU-Sim PTX: 16200000 instructions simulated : ctaid=(72,0,0) tid=(127,0,0)
GPGPU-Sim uArch: cycles simulated: 56000  inst.: 15487347 (ipc=276.6) sim_rate=212155 (inst/sec) elapsed = 0:0:01:13 / Tue Apr 16 16:56:41 2019
GPGPU-Sim PTX: 16300000 instructions simulated : ctaid=(72,0,0) tid=(83,0,0)
GPGPU-Sim uArch: Shader 11 finished CTA #3 (56464,0), 5 CTAs running
GPGPU-Sim PTX: 16400000 instructions simulated : ctaid=(67,0,0) tid=(244,0,0)
GPGPU-Sim PTX: 16500000 instructions simulated : ctaid=(109,0,0) tid=(162,0,0)
GPGPU-Sim uArch: cycles simulated: 57000  inst.: 15773274 (ipc=276.7) sim_rate=213152 (inst/sec) elapsed = 0:0:01:14 / Tue Apr 16 16:56:42 2019
GPGPU-Sim uArch: Shader 2 finished CTA #2 (57128,0), 5 CTAs running
GPGPU-Sim PTX: 16600000 instructions simulated : ctaid=(77,0,0) tid=(89,0,0)
GPGPU-Sim uArch: cycles simulated: 57500  inst.: 15929990 (ipc=277.0) sim_rate=212399 (inst/sec) elapsed = 0:0:01:15 / Tue Apr 16 16:56:43 2019
GPGPU-Sim PTX: 16700000 instructions simulated : ctaid=(67,0,0) tid=(5,0,0)
GPGPU-Sim uArch: Shader 4 finished CTA #3 (57679,0), 5 CTAs running
GPGPU-Sim PTX: 16800000 instructions simulated : ctaid=(66,0,0) tid=(124,0,0)
GPGPU-Sim PTX: 16900000 instructions simulated : ctaid=(83,0,0) tid=(239,0,0)
GPGPU-Sim uArch: Shader 8 finished CTA #3 (58058,0), 5 CTAs running
GPGPU-Sim uArch: Shader 12 finished CTA #3 (58087,0), 4 CTAs running
GPGPU-Sim uArch: Shader 14 finished CTA #3 (58147,0), 5 CTAs running
GPGPU-Sim PTX: 17000000 instructions simulated : ctaid=(47,0,0) tid=(108,0,0)
GPGPU-Sim uArch: cycles simulated: 58500  inst.: 16274535 (ipc=278.2) sim_rate=214138 (inst/sec) elapsed = 0:0:01:16 / Tue Apr 16 16:56:44 2019
GPGPU-Sim PTX: 17100000 instructions simulated : ctaid=(68,0,0) tid=(140,0,0)
GPGPU-Sim uArch: Shader 6 finished CTA #3 (58799,0), 5 CTAs running
GPGPU-Sim PTX: 17200000 instructions simulated : ctaid=(46,0,0) tid=(232,0,0)
GPGPU-Sim uArch: Shader 1 finished CTA #3 (58976,0), 5 CTAs running
GPGPU-Sim uArch: cycles simulated: 59000  inst.: 16423654 (ipc=278.4) sim_rate=213294 (inst/sec) elapsed = 0:0:01:17 / Tue Apr 16 16:56:45 2019
GPGPU-Sim uArch: Shader 7 finished CTA #3 (59116,0), 5 CTAs running
GPGPU-Sim PTX: 17300000 instructions simulated : ctaid=(64,0,0) tid=(6,0,0)
GPGPU-Sim uArch: Shader 5 finished CTA #3 (59547,0), 5 CTAs running
GPGPU-Sim PTX: 17400000 instructions simulated : ctaid=(68,0,0) tid=(248,0,0)
GPGPU-Sim uArch: cycles simulated: 60000  inst.: 16677254 (ipc=278.0) sim_rate=213810 (inst/sec) elapsed = 0:0:01:18 / Tue Apr 16 16:56:46 2019
GPGPU-Sim uArch: Shader 13 finished CTA #3 (60054,0), 4 CTAs running
GPGPU-Sim PTX: 17500000 instructions simulated : ctaid=(93,0,0) tid=(64,0,0)
GPGPU-Sim PTX: 17600000 instructions simulated : ctaid=(54,0,0) tid=(185,0,0)
GPGPU-Sim PTX: 17700000 instructions simulated : ctaid=(54,0,0) tid=(86,0,0)
GPGPU-Sim uArch: cycles simulated: 61000  inst.: 16961108 (ipc=278.1) sim_rate=214697 (inst/sec) elapsed = 0:0:01:19 / Tue Apr 16 16:56:47 2019
GPGPU-Sim PTX: 17800000 instructions simulated : ctaid=(79,0,0) tid=(144,0,0)
GPGPU-Sim PTX: 17900000 instructions simulated : ctaid=(93,0,0) tid=(196,0,0)
GPGPU-Sim uArch: cycles simulated: 61500  inst.: 17126900 (ipc=278.5) sim_rate=214086 (inst/sec) elapsed = 0:0:01:20 / Tue Apr 16 16:56:48 2019
GPGPU-Sim PTX: 18000000 instructions simulated : ctaid=(124,0,0) tid=(208,0,0)
GPGPU-Sim PTX: 18100000 instructions simulated : ctaid=(119,0,0) tid=(58,0,0)
GPGPU-Sim uArch: Shader 9 finished CTA #3 (62368,0), 4 CTAs running
GPGPU-Sim PTX: 18200000 instructions simulated : ctaid=(63,0,0) tid=(242,0,0)
GPGPU-Sim uArch: cycles simulated: 62500  inst.: 17401592 (ipc=278.4) sim_rate=214834 (inst/sec) elapsed = 0:0:01:21 / Tue Apr 16 16:56:49 2019
GPGPU-Sim uArch: Shader 1 finished CTA #4 (62577,0), 4 CTAs running
GPGPU-Sim uArch: Shader 3 finished CTA #3 (62623,0), 4 CTAs running
GPGPU-Sim PTX: 18300000 instructions simulated : ctaid=(116,0,0) tid=(207,0,0)
GPGPU-Sim uArch: Shader 0 finished CTA #3 (62875,0), 4 CTAs running
GPGPU-Sim uArch: cycles simulated: 63000  inst.: 17525107 (ipc=278.2) sim_rate=213720 (inst/sec) elapsed = 0:0:01:22 / Tue Apr 16 16:56:50 2019
GPGPU-Sim uArch: Shader 10 finished CTA #3 (63115,0), 4 CTAs running
GPGPU-Sim PTX: 18400000 instructions simulated : ctaid=(85,0,0) tid=(41,0,0)
GPGPU-Sim PTX: 18500000 instructions simulated : ctaid=(84,0,0) tid=(121,0,0)
GPGPU-Sim PTX: 18600000 instructions simulated : ctaid=(86,0,0) tid=(106,0,0)
GPGPU-Sim uArch: cycles simulated: 64000  inst.: 17799147 (ipc=278.1) sim_rate=214447 (inst/sec) elapsed = 0:0:01:23 / Tue Apr 16 16:56:51 2019
GPGPU-Sim PTX: 18700000 instructions simulated : ctaid=(90,0,0) tid=(85,0,0)
GPGPU-Sim uArch: Shader 11 finished CTA #4 (64331,0), 4 CTAs running
GPGPU-Sim PTX: 18800000 instructions simulated : ctaid=(64,0,0) tid=(16,0,0)
GPGPU-Sim PTX: 18900000 instructions simulated : ctaid=(127,0,0) tid=(11,0,0)
GPGPU-Sim uArch: Shader 14 finished CTA #4 (64894,0), 4 CTAs running
GPGPU-Sim uArch: cycles simulated: 65000  inst.: 18103055 (ipc=278.5) sim_rate=215512 (inst/sec) elapsed = 0:0:01:24 / Tue Apr 16 16:56:52 2019
GPGPU-Sim PTX: 19000000 instructions simulated : ctaid=(81,0,0) tid=(72,0,0)
GPGPU-Sim uArch: Shader 12 finished CTA #4 (65293,0), 3 CTAs running
GPGPU-Sim PTX: 19100000 instructions simulated : ctaid=(86,0,0) tid=(19,0,0)
GPGPU-Sim uArch: cycles simulated: 65500  inst.: 18238404 (ipc=278.4) sim_rate=214569 (inst/sec) elapsed = 0:0:01:25 / Tue Apr 16 16:56:53 2019
GPGPU-Sim PTX: 19200000 instructions simulated : ctaid=(117,0,0) tid=(211,0,0)
GPGPU-Sim PTX: 19300000 instructions simulated : ctaid=(117,0,0) tid=(17,0,0)
GPGPU-Sim uArch: Shader 7 finished CTA #4 (66078,0), 4 CTAs running
GPGPU-Sim PTX: 19400000 instructions simulated : ctaid=(93,0,0) tid=(69,0,0)
GPGPU-Sim PTX: 19500000 instructions simulated : ctaid=(117,0,0) tid=(96,0,0)
GPGPU-Sim uArch: cycles simulated: 66500  inst.: 18608726 (ipc=279.8) sim_rate=216380 (inst/sec) elapsed = 0:0:01:26 / Tue Apr 16 16:56:54 2019
GPGPU-Sim PTX: 19600000 instructions simulated : ctaid=(87,0,0) tid=(85,0,0)
GPGPU-Sim PTX: 19700000 instructions simulated : ctaid=(95,0,0) tid=(25,0,0)
GPGPU-Sim uArch: cycles simulated: 67000  inst.: 18825692 (ipc=281.0) sim_rate=216387 (inst/sec) elapsed = 0:0:01:27 / Tue Apr 16 16:56:55 2019
GPGPU-Sim PTX: 19800000 instructions simulated : ctaid=(102,0,0) tid=(95,0,0)
GPGPU-Sim PTX: 19900000 instructions simulated : ctaid=(75,0,0) tid=(140,0,0)
GPGPU-Sim uArch: Shader 5 finished CTA #4 (67404,0), 4 CTAs running
GPGPU-Sim uArch: cycles simulated: 67500  inst.: 19044365 (ipc=282.1) sim_rate=216413 (inst/sec) elapsed = 0:0:01:28 / Tue Apr 16 16:56:56 2019
GPGPU-Sim PTX: 20000000 instructions simulated : ctaid=(108,0,0) tid=(228,0,0)
GPGPU-Sim uArch: Shader 2 finished CTA #3 (67730,0), 4 CTAs running
GPGPU-Sim PTX: 20100000 instructions simulated : ctaid=(127,0,0) tid=(61,0,0)
GPGPU-Sim uArch: Shader 3 finished CTA #4 (67885,0), 3 CTAs running
GPGPU-Sim PTX: 20200000 instructions simulated : ctaid=(74,0,0) tid=(172,0,0)
GPGPU-Sim uArch: Shader 8 finished CTA #4 (68101,0), 4 CTAs running
GPGPU-Sim uArch: Shader 13 finished CTA #4 (68145,0), 3 CTAs running
GPGPU-Sim uArch: Shader 6 finished CTA #4 (68192,0), 4 CTAs running
GPGPU-Sim PTX: 20300000 instructions simulated : ctaid=(68,0,0) tid=(30,0,0)
GPGPU-Sim uArch: Shader 11 finished CTA #5 (68388,0), 3 CTAs running
GPGPU-Sim PTX: 20400000 instructions simulated : ctaid=(86,0,0) tid=(125,0,0)
GPGPU-Sim uArch: cycles simulated: 68500  inst.: 19482065 (ipc=284.4) sim_rate=218899 (inst/sec) elapsed = 0:0:01:29 / Tue Apr 16 16:56:57 2019
GPGPU-Sim PTX: 20500000 instructions simulated : ctaid=(107,0,0) tid=(225,0,0)
GPGPU-Sim uArch: Shader 9 finished CTA #4 (68814,0), 3 CTAs running
GPGPU-Sim uArch: Shader 4 finished CTA #4 (68877,0), 4 CTAs running
GPGPU-Sim PTX: 20600000 instructions simulated : ctaid=(94,0,0) tid=(101,0,0)
GPGPU-Sim uArch: Shader 12 finished CTA #5 (68980,0), 2 CTAs running
GPGPU-Sim uArch: Shader 10 finished CTA #4 (68995,0), 3 CTAs running
GPGPU-Sim uArch: cycles simulated: 69000  inst.: 19684867 (ipc=285.3) sim_rate=218720 (inst/sec) elapsed = 0:0:01:30 / Tue Apr 16 16:56:58 2019
GPGPU-Sim uArch: Shader 0 finished CTA #4 (69049,0), 3 CTAs running
GPGPU-Sim PTX: 20700000 instructions simulated : ctaid=(113,0,0) tid=(98,0,0)
GPGPU-Sim PTX: 20800000 instructions simulated : ctaid=(105,0,0) tid=(139,0,0)
GPGPU-Sim uArch: Shader 1 finished CTA #5 (69388,0), 3 CTAs running
GPGPU-Sim PTX: 20900000 instructions simulated : ctaid=(88,0,0) tid=(149,0,0)
GPGPU-Sim uArch: Shader 7 finished CTA #5 (69946,0), 3 CTAs running
GPGPU-Sim PTX: 21000000 instructions simulated : ctaid=(119,0,0) tid=(191,0,0)
GPGPU-Sim uArch: cycles simulated: 70000  inst.: 20050204 (ipc=286.4) sim_rate=220331 (inst/sec) elapsed = 0:0:01:31 / Tue Apr 16 16:56:59 2019
GPGPU-Sim PTX: 21100000 instructions simulated : ctaid=(92,0,0) tid=(149,0,0)
GPGPU-Sim PTX: 21200000 instructions simulated : ctaid=(107,0,0) tid=(130,0,0)
GPGPU-Sim uArch: cycles simulated: 70500  inst.: 20250850 (ipc=287.2) sim_rate=220117 (inst/sec) elapsed = 0:0:01:32 / Tue Apr 16 16:57:00 2019
GPGPU-Sim uArch: Shader 14 finished CTA #5 (70508,0), 3 CTAs running
GPGPU-Sim PTX: 21300000 instructions simulated : ctaid=(77,0,0) tid=(25,0,0)
GPGPU-Sim PTX: 21400000 instructions simulated : ctaid=(96,0,0) tid=(249,0,0)
GPGPU-Sim PTX: 21500000 instructions simulated : ctaid=(79,0,0) tid=(17,0,0)
GPGPU-Sim uArch: Shader 6 finished CTA #5 (71370,0), 3 CTAs running
GPGPU-Sim uArch: Shader 10 finished CTA #5 (71404,0), 2 CTAs running
GPGPU-Sim PTX: 21600000 instructions simulated : ctaid=(82,0,0) tid=(77,0,0)
GPGPU-Sim uArch: cycles simulated: 71500  inst.: 20617112 (ipc=288.4) sim_rate=221689 (inst/sec) elapsed = 0:0:01:33 / Tue Apr 16 16:57:01 2019
GPGPU-Sim PTX: 21700000 instructions simulated : ctaid=(110,0,0) tid=(139,0,0)
GPGPU-Sim PTX: 21800000 instructions simulated : ctaid=(105,0,0) tid=(97,0,0)
GPGPU-Sim uArch: cycles simulated: 72000  inst.: 20818728 (ipc=289.1) sim_rate=221475 (inst/sec) elapsed = 0:0:01:34 / Tue Apr 16 16:57:02 2019
GPGPU-Sim PTX: 21900000 instructions simulated : ctaid=(98,0,0) tid=(57,0,0)
GPGPU-Sim PTX: 22000000 instructions simulated : ctaid=(117,0,0) tid=(252,0,0)
GPGPU-Sim uArch: Shader 8 finished CTA #5 (72445,0), 3 CTAs running
GPGPU-Sim uArch: cycles simulated: 72500  inst.: 21018808 (ipc=289.9) sim_rate=221250 (inst/sec) elapsed = 0:0:01:35 / Tue Apr 16 16:57:03 2019
GPGPU-Sim uArch: Shader 3 finished CTA #5 (72543,0), 2 CTAs running
GPGPU-Sim uArch: Shader 13 finished CTA #5 (72579,0), 2 CTAs running
GPGPU-Sim PTX: 22100000 instructions simulated : ctaid=(102,0,0) tid=(125,0,0)
GPGPU-Sim PTX: 22200000 instructions simulated : ctaid=(116,0,0) tid=(212,0,0)
GPGPU-Sim PTX: 22300000 instructions simulated : ctaid=(121,0,0) tid=(28,0,0)
GPGPU-Sim PTX: 22400000 instructions simulated : ctaid=(104,0,0) tid=(96,0,0)
GPGPU-Sim uArch: Shader 1 finished CTA #0 (73457,0), 2 CTAs running
GPGPU-Sim uArch: Shader 2 finished CTA #4 (73494,0), 3 CTAs running
GPGPU-Sim uArch: cycles simulated: 73500  inst.: 21440533 (ipc=291.7) sim_rate=223338 (inst/sec) elapsed = 0:0:01:36 / Tue Apr 16 16:57:04 2019
GPGPU-Sim PTX: 22500000 instructions simulated : ctaid=(106,0,0) tid=(194,0,0)
GPGPU-Sim uArch: Shader 0 finished CTA #5 (73750,0), 2 CTAs running
GPGPU-Sim PTX: 22600000 instructions simulated : ctaid=(112,0,0) tid=(252,0,0)
GPGPU-Sim uArch: cycles simulated: 74000  inst.: 21620689 (ipc=292.2) sim_rate=222893 (inst/sec) elapsed = 0:0:01:37 / Tue Apr 16 16:57:05 2019
GPGPU-Sim PTX: 22700000 instructions simulated : ctaid=(116,0,0) tid=(237,0,0)
GPGPU-Sim uArch: Shader 12 finished CTA #0 (74101,0), 1 CTAs running
GPGPU-Sim uArch: Shader 9 finished CTA #5 (74196,0), 2 CTAs running
GPGPU-Sim uArch: Shader 11 finished CTA #0 (74331,0), 2 CTAs running
GPGPU-Sim PTX: 22800000 instructions simulated : ctaid=(97,0,0) tid=(159,0,0)
GPGPU-Sim PTX: 22900000 instructions simulated : ctaid=(99,0,0) tid=(31,0,0)
GPGPU-Sim PTX: 23000000 instructions simulated : ctaid=(97,0,0) tid=(37,0,0)
GPGPU-Sim uArch: cycles simulated: 75000  inst.: 21948251 (ipc=292.6) sim_rate=223961 (inst/sec) elapsed = 0:0:01:38 / Tue Apr 16 16:57:06 2019
GPGPU-Sim PTX: 23100000 instructions simulated : ctaid=(98,0,0) tid=(179,0,0)
GPGPU-Sim uArch: Shader 4 finished CTA #5 (75321,0), 3 CTAs running
GPGPU-Sim uArch: Shader 5 finished CTA #5 (75480,0), 3 CTAs running
GPGPU-Sim PTX: 23200000 instructions simulated : ctaid=(118,0,0) tid=(171,0,0)
GPGPU-Sim uArch: cycles simulated: 75500  inst.: 22135562 (ipc=293.2) sim_rate=223591 (inst/sec) elapsed = 0:0:01:39 / Tue Apr 16 16:57:07 2019
GPGPU-Sim PTX: 23300000 instructions simulated : ctaid=(109,0,0) tid=(123,0,0)
GPGPU-Sim PTX: 23400000 instructions simulated : ctaid=(95,0,0) tid=(39,0,0)
GPGPU-Sim uArch: Shader 12 finished CTA #1 (76162,0), 0 CTAs running
GPGPU-Sim uArch: Shader 12 empty (release kernel 1 '_Z13scalarProdGPUPfS_S_ii').
GPGPU-Sim PTX: 23500000 instructions simulated : ctaid=(97,0,0) tid=(18,0,0)
GPGPU-Sim uArch: cycles simulated: 76500  inst.: 22502523 (ipc=294.2) sim_rate=225025 (inst/sec) elapsed = 0:0:01:40 / Tue Apr 16 16:57:08 2019
GPGPU-Sim PTX: 23600000 instructions simulated : ctaid=(98,0,0) tid=(111,0,0)
GPGPU-Sim uArch: Shader 10 finished CTA #0 (76532,0), 1 CTAs running
GPGPU-Sim PTX: 23700000 instructions simulated : ctaid=(109,0,0) tid=(245,0,0)
GPGPU-Sim uArch: Shader 13 finished CTA #0 (76841,0), 1 CTAs running
GPGPU-Sim uArch: Shader 7 finished CTA #0 (76937,0), 2 CTAs running
GPGPU-Sim uArch: Shader 3 finished CTA #0 (77042,0), 1 CTAs running
GPGPU-Sim PTX: 23800000 instructions simulated : ctaid=(105,0,0) tid=(237,0,0)
GPGPU-Sim uArch: Shader 14 finished CTA #0 (77089,0), 2 CTAs running
GPGPU-Sim PTX: 23900000 instructions simulated : ctaid=(111,0,0) tid=(27,0,0)
GPGPU-Sim uArch: Shader 9 finished CTA #0 (77460,0), 1 CTAs running
GPGPU-Sim uArch: cycles simulated: 77500  inst.: 22849896 (ipc=294.8) sim_rate=226236 (inst/sec) elapsed = 0:0:01:41 / Tue Apr 16 16:57:09 2019
GPGPU-Sim PTX: 24000000 instructions simulated : ctaid=(125,0,0) tid=(7,0,0)
GPGPU-Sim PTX: 24100000 instructions simulated : ctaid=(111,0,0) tid=(114,0,0)
GPGPU-Sim uArch: cycles simulated: 78000  inst.: 23036448 (ipc=295.3) sim_rate=225847 (inst/sec) elapsed = 0:0:01:42 / Tue Apr 16 16:57:10 2019
GPGPU-Sim uArch: Shader 11 finished CTA #1 (78130,0), 1 CTAs running
GPGPU-Sim PTX: 24200000 instructions simulated : ctaid=(122,0,0) tid=(223,0,0)
GPGPU-Sim uArch: Shader 2 finished CTA #5 (78229,0), 2 CTAs running
GPGPU-Sim uArch: Shader 1 finished CTA #1 (78299,0), 1 CTAs running
GPGPU-Sim PTX: 24300000 instructions simulated : ctaid=(125,0,0) tid=(13,0,0)
GPGPU-Sim uArch: Shader 8 finished CTA #0 (78468,0), 2 CTAs running
GPGPU-Sim PTX: 24400000 instructions simulated : ctaid=(96,0,0) tid=(68,0,0)
GPGPU-Sim uArch: Shader 0 finished CTA #0 (78739,0), 1 CTAs running
GPGPU-Sim uArch: cycles simulated: 79000  inst.: 23332602 (ipc=295.3) sim_rate=226530 (inst/sec) elapsed = 0:0:01:43 / Tue Apr 16 16:57:11 2019
GPGPU-Sim uArch: Shader 13 finished CTA #1 (79032,0), 0 CTAs running
GPGPU-Sim uArch: Shader 13 empty (release kernel 1 '_Z13scalarProdGPUPfS_S_ii').
GPGPU-Sim uArch: Shader 6 finished CTA #0 (79034,0), 2 CTAs running
GPGPU-Sim PTX: 24500000 instructions simulated : ctaid=(126,0,0) tid=(123,0,0)
GPGPU-Sim uArch: Shader 10 finished CTA #1 (79379,0), 0 CTAs running
GPGPU-Sim uArch: Shader 10 empty (release kernel 1 '_Z13scalarProdGPUPfS_S_ii').
GPGPU-Sim PTX: 24600000 instructions simulated : ctaid=(107,0,0) tid=(121,0,0)
GPGPU-Sim uArch: Shader 5 finished CTA #0 (79672,0), 2 CTAs running
GPGPU-Sim PTX: 24700000 instructions simulated : ctaid=(124,0,0) tid=(253,0,0)
GPGPU-Sim uArch: Shader 14 finished CTA #1 (79871,0), 1 CTAs running
GPGPU-Sim uArch: Shader 7 finished CTA #1 (79927,0), 1 CTAs running
GPGPU-Sim uArch: cycles simulated: 80000  inst.: 23592938 (ipc=294.9) sim_rate=226855 (inst/sec) elapsed = 0:0:01:44 / Tue Apr 16 16:57:12 2019
GPGPU-Sim PTX: 24800000 instructions simulated : ctaid=(123,0,0) tid=(111,0,0)
GPGPU-Sim PTX: 24900000 instructions simulated : ctaid=(116,0,0) tid=(113,0,0)
GPGPU-Sim uArch: Shader 3 finished CTA #1 (80741,0), 0 CTAs running
GPGPU-Sim uArch: Shader 3 empty (release kernel 1 '_Z13scalarProdGPUPfS_S_ii').
GPGPU-Sim uArch: Shader 9 finished CTA #1 (81028,0), 0 CTAs running
GPGPU-Sim uArch: Shader 9 empty (release kernel 1 '_Z13scalarProdGPUPfS_S_ii').
GPGPU-Sim uArch: Shader 11 finished CTA #2 (81125,0), 0 CTAs running
GPGPU-Sim uArch: Shader 11 empty (release kernel 1 '_Z13scalarProdGPUPfS_S_ii').
GPGPU-Sim PTX: 25000000 instructions simulated : ctaid=(116,0,0) tid=(252,0,0)
GPGPU-Sim uArch: Shader 4 finished CTA #0 (81320,0), 2 CTAs running
GPGPU-Sim uArch: cycles simulated: 81500  inst.: 23938531 (ipc=293.7) sim_rate=227986 (inst/sec) elapsed = 0:0:01:45 / Tue Apr 16 16:57:13 2019
GPGPU-Sim PTX: 25100000 instructions simulated : ctaid=(116,0,0) tid=(75,0,0)
GPGPU-Sim uArch: Shader 1 finished CTA #2 (81717,0), 0 CTAs running
GPGPU-Sim uArch: Shader 1 empty (release kernel 1 '_Z13scalarProdGPUPfS_S_ii').
GPGPU-Sim uArch: Shader 8 finished CTA #1 (81732,0), 1 CTAs running
GPGPU-Sim PTX: 25200000 instructions simulated : ctaid=(125,0,0) tid=(251,0,0)
GPGPU-Sim uArch: Shader 0 finished CTA #1 (82375,0), 0 CTAs running
GPGPU-Sim uArch: Shader 0 empty (release kernel 1 '_Z13scalarProdGPUPfS_S_ii').
GPGPU-Sim uArch: Shader 6 finished CTA #1 (82712,0), 1 CTAs running
GPGPU-Sim uArch: Shader 14 finished CTA #2 (82724,0), 0 CTAs running
GPGPU-Sim uArch: Shader 14 empty (release kernel 1 '_Z13scalarProdGPUPfS_S_ii').
GPGPU-Sim PTX: 25300000 instructions simulated : ctaid=(126,0,0) tid=(221,0,0)
GPGPU-Sim uArch: Shader 7 finished CTA #2 (82805,0), 0 CTAs running
GPGPU-Sim uArch: Shader 7 empty (release kernel 1 '_Z13scalarProdGPUPfS_S_ii').
GPGPU-Sim uArch: Shader 2 finished CTA #0 (82868,0), 1 CTAs running
GPGPU-Sim uArch: cycles simulated: 83000  inst.: 24159355 (ipc=291.1) sim_rate=227918 (inst/sec) elapsed = 0:0:01:46 / Tue Apr 16 16:57:14 2019
GPGPU-Sim PTX: 25400000 instructions simulated : ctaid=(116,0,0) tid=(37,0,0)
GPGPU-Sim uArch: Shader 5 finished CTA #1 (83923,0), 1 CTAs running
GPGPU-Sim uArch: Shader 2 finished CTA #1 (84539,0), 0 CTAs running
GPGPU-Sim uArch: Shader 2 empty (release kernel 1 '_Z13scalarProdGPUPfS_S_ii').
GPGPU-Sim uArch: Shader 4 finished CTA #1 (84550,0), 1 CTAs running
GPGPU-Sim PTX: 25500000 instructions simulated : ctaid=(123,0,0) tid=(39,0,0)
GPGPU-Sim uArch: Shader 6 finished CTA #2 (85180,0), 0 CTAs running
GPGPU-Sim uArch: Shader 6 empty (release kernel 1 '_Z13scalarProdGPUPfS_S_ii').
GPGPU-Sim uArch: Shader 8 finished CTA #2 (85978,0), 0 CTAs running
GPGPU-Sim uArch: Shader 8 empty (release kernel 1 '_Z13scalarProdGPUPfS_S_ii').
GPGPU-Sim PTX: 25600000 instructions simulated : ctaid=(126,0,0) tid=(164,0,0)
GPGPU-Sim uArch: cycles simulated: 86500  inst.: 24426861 (ipc=282.4) sim_rate=228288 (inst/sec) elapsed = 0:0:01:47 / Tue Apr 16 16:57:15 2019
GPGPU-Sim uArch: Shader 5 finished CTA #2 (86617,0), 0 CTAs running
GPGPU-Sim uArch: Shader 5 empty (release kernel 1 '_Z13scalarProdGPUPfS_S_ii').
GPGPU-Sim uArch: Shader 4 finished CTA #2 (87515,0), 0 CTAs running
GPGPU-Sim uArch: Shader 4 empty (release kernel 1 '_Z13scalarProdGPUPfS_S_ii').
GPGPU-Sim uArch: GPU detected kernel '_Z13scalarProdGPUPfS_S_ii' finished on shader 4.
kernel_name = _Z13scalarProdGPUPfS_S_ii 
kernel_launch_uid = 1 
gpu_sim_cycle = 87516
gpu_sim_insn = 24441600
gpu_ipc =     279.2815
gpu_tot_sim_cycle = 87516
gpu_tot_sim_insn = 24441600
gpu_tot_ipc =     279.2815
gpu_tot_issued_cta = 0
gpu_stall_dramfull = 9019
gpu_stall_icnt2sh    = 389405
gpu_total_sim_rate=228426

========= Core cache stats =========
L1I_cache:
	L1I_total_cache_accesses = 465465
	L1I_total_cache_misses = 1849
	L1I_total_cache_miss_rate = 0.0040
	L1I_total_cache_pending_hits = 0
	L1I_total_cache_reservation_fails = 6262
L1D_cache:
	L1D_cache_core[0]: Access = 4112, Miss = 4112, Miss_rate = 1.000, Pending_hits = 0, Reservation_fails = 56695
	L1D_cache_core[1]: Access = 4626, Miss = 4626, Miss_rate = 1.000, Pending_hits = 0, Reservation_fails = 53597
	L1D_cache_core[2]: Access = 4112, Miss = 4112, Miss_rate = 1.000, Pending_hits = 0, Reservation_fails = 60269
	L1D_cache_core[3]: Access = 4112, Miss = 4112, Miss_rate = 1.000, Pending_hits = 0, Reservation_fails = 54868
	L1D_cache_core[4]: Access = 4626, Miss = 4626, Miss_rate = 1.000, Pending_hits = 0, Reservation_fails = 61724
	L1D_cache_core[5]: Access = 4626, Miss = 4626, Miss_rate = 1.000, Pending_hits = 0, Reservation_fails = 59679
	L1D_cache_core[6]: Access = 4626, Miss = 4626, Miss_rate = 1.000, Pending_hits = 0, Reservation_fails = 59206
	L1D_cache_core[7]: Access = 4626, Miss = 4626, Miss_rate = 1.000, Pending_hits = 0, Reservation_fails = 56243
	L1D_cache_core[8]: Access = 4626, Miss = 4626, Miss_rate = 1.000, Pending_hits = 0, Reservation_fails = 59008
	L1D_cache_core[9]: Access = 4112, Miss = 4112, Miss_rate = 1.000, Pending_hits = 0, Reservation_fails = 56211
	L1D_cache_core[10]: Access = 4112, Miss = 4112, Miss_rate = 1.000, Pending_hits = 0, Reservation_fails = 53705
	L1D_cache_core[11]: Access = 4626, Miss = 4626, Miss_rate = 1.000, Pending_hits = 0, Reservation_fails = 53841
	L1D_cache_core[12]: Access = 4112, Miss = 4112, Miss_rate = 1.000, Pending_hits = 0, Reservation_fails = 51063
	L1D_cache_core[13]: Access = 4112, Miss = 4112, Miss_rate = 1.000, Pending_hits = 0, Reservation_fails = 54469
	L1D_cache_core[14]: Access = 4626, Miss = 4626, Miss_rate = 1.000, Pending_hits = 0, Reservation_fails = 56953
	L1D_total_cache_accesses = 65792
	L1D_total_cache_misses = 65792
	L1D_total_cache_miss_rate = 1.0000
	L1D_total_cache_pending_hits = 0
	L1D_total_cache_reservation_fails = 847531
	L1D_cache_data_port_util = 0.000
	L1D_cache_fill_port_util = 0.053
L1C_cache:
	L1C_total_cache_accesses = 19712
	L1C_total_cache_misses = 480
	L1C_total_cache_miss_rate = 0.0244
	L1C_total_cache_pending_hits = 0
	L1C_total_cache_reservation_fails = 3404
L1T_cache:
	L1T_total_cache_accesses = 0
	L1T_total_cache_misses = 0
	L1T_total_cache_pending_hits = 0
	L1T_total_cache_reservation_fails = 0

Total_core_cache_stats:
	Total_core_cache_stats_breakdown[GLOBAL_ACC_R][MISS] = 65536
	Total_core_cache_stats_breakdown[GLOBAL_ACC_R][RESERVATION_FAIL] = 841734
	Total_core_cache_stats_breakdown[CONST_ACC_R][HIT] = 19232
	Total_core_cache_stats_breakdown[CONST_ACC_R][MISS] = 480
	Total_core_cache_stats_breakdown[CONST_ACC_R][RESERVATION_FAIL] = 3404
	Total_core_cache_stats_breakdown[GLOBAL_ACC_W][MISS] = 256
	Total_core_cache_stats_breakdown[GLOBAL_ACC_W][RESERVATION_FAIL] = 5797
	Total_core_cache_stats_breakdown[INST_ACC_R][HIT] = 463616
	Total_core_cache_stats_breakdown[INST_ACC_R][MISS] = 1849
	Total_core_cache_stats_breakdown[INST_ACC_R][RESERVATION_FAIL] = 6262
Shader 0 warp_id issue ditsribution:
warp_id:
0, 1, 2, 3, 4, 5, 6, 7, 8, 9, 10, 11, 12, 13, 14, 15, 16, 17, 18, 19, 20, 21, 22, 23, 24, 25, 26, 27, 28, 29, 30, 31, 32, 33, 34, 35, 36, 37, 38, 39, 40, 41, 42, 43, 44, 45, 46, 47, 
distro:
2148, 1644, 1564, 1564, 1484, 1484, 1484, 1484, 2148, 1644, 1564, 1564, 1484, 1484, 1484, 1484, 1074, 822, 782, 782, 742, 742, 742, 742, 1074, 822, 782, 782, 742, 742, 742, 742, 1074, 822, 782, 782, 742, 742, 742, 742, 1074, 822, 782, 782, 742, 742, 742, 742, 
gpgpu_n_tot_thrd_icount = 26329088
gpgpu_n_tot_w_icount = 822784
gpgpu_n_stall_shd_mem = 850935
gpgpu_n_mem_read_local = 0
gpgpu_n_mem_write_local = 0
gpgpu_n_mem_read_global = 65536
gpgpu_n_mem_write_global = 256
gpgpu_n_mem_texture = 0
gpgpu_n_mem_const = 15
gpgpu_n_load_insn  = 2097152
gpgpu_n_store_insn = 256
gpgpu_n_shmem_insn = 1048064
gpgpu_n_tex_insn = 0
gpgpu_n_const_mem_insn = 0
gpgpu_n_param_mem_insn = 622848
gpgpu_n_shmem_bkconflict = 0
gpgpu_n_cache_bkconflict = 0
gpgpu_n_intrawarp_mshr_merge = 0
gpgpu_n_cmem_portconflict = 3404
gpgpu_stall_shd_mem[c_mem][bk_conf] = 3404
gpgpu_stall_shd_mem[c_mem][mshr_rc] = 0
gpgpu_stall_shd_mem[c_mem][icnt_rc] = 0
gpgpu_stall_shd_mem[c_mem][data_port_stall] = 0
gpgpu_stall_shd_mem[t_mem][mshr_rc] = 0
gpgpu_stall_shd_mem[t_mem][icnt_rc] = 0
gpgpu_stall_shd_mem[t_mem][data_port_stall] = 0
gpgpu_stall_shd_mem[s_mem][bk_conf] = 0
gpgpu_stall_shd_mem[gl_mem][bk_conf] = 0
gpgpu_stall_shd_mem[gl_mem][coal_stall] = 847531
gpgpu_stall_shd_mem[gl_mem][data_port_stall] = 0
gpgpu_stall_shd_mem[g_mem_ld][mshr_rc] = 0
gpgpu_stall_shd_mem[g_mem_ld][icnt_rc] = 0
gpgpu_stall_shd_mem[g_mem_ld][wb_icnt_rc] = 0
gpgpu_stall_shd_mem[g_mem_ld][wb_rsrv_fail] = 0
[...]
traffic_breakdown_coretomem[CONST_ACC_R] = 120 {8:15,}
traffic_breakdown_coretomem[GLOBAL_ACC_R] = 524288 {8:65536,}
traffic_breakdown_coretomem[GLOBAL_ACC_W] = 10240 {40:256,}
traffic_breakdown_coretomem[INST_ACC_R] = 840 {8:105,}
traffic_breakdown_memtocore[CONST_ACC_R] = 1080 {72:15,}
traffic_breakdown_memtocore[GLOBAL_ACC_R] = 8912896 {136:65536,}
traffic_breakdown_memtocore[GLOBAL_ACC_W] = 2048 {8:256,}
traffic_breakdown_memtocore[INST_ACC_R] = 14280 {136:105,}
maxmrqlatency = 181 
maxdqlatency = 0 
maxmflatency = 617 
averagemflatency = 336 
max_icnt2mem_latency = 171 
max_icnt2sh_latency = 87515 
mrq_lat_table:49439 	1307 	1847 	3716 	6105 	2635 	511 	8 	0 	0 	0 	0 	0 	0 	0 	0 	0 	0 	0 	0 	0 	0 	0 	0 	0 	0 	0 	0 	0 	0 	0 	0 	
dq_lat_table:0 	0 	0 	0 	0 	0 	0 	0 	0 	0 	0 	0 	0 	0 	0 	0 	0 	0 	0 	0 	0 	0 	0 	0 	0 	0 	0 	0 	0 	0 	0 	0 	
mf_lat_table:0 	0 	0 	0 	0 	0 	0 	231 	65377 	199 	0 	0 	0 	0 	0 	0 	0 	0 	0 	0 	0 	0 	0 	0 	0 	0 	0 	0 	0 	0 	0 	0 	
icnt2mem_lat_table:0 	0 	0 	56061 	9226 	471 	140 	14 	0 	0 	0 	0 	0 	0 	0 	0 	0 	0 	0 	0 	0 	0 	0 	0 	
icnt2sh_lat_table:0 	0 	0 	9917 	26057 	23980 	5567 	30 	0 	0 	0 	0 	0 	0 	31 	125 	100 	0 	0 	0 	0 	0 	0 	0 	
mf_lat_pw_table:0 	0 	0 	0 	0 	0 	0 	1 	170 	0 	0 	0 	0 	0 	0 	0 	0 	0 	0 	0 	0 	0 	0 	0 	0 	0 	0 	0 	0 	0 	0 	0 	
maximum concurrent accesses to same row:
dram[0]:         6         6         4         5         4         4         4         4         6         6         5         6         6         6         6         6 
dram[1]:         5         6         4         6         5         4         6         6         6         6         5         6         6         6         5        12 
dram[2]:         6         5         4         5         5         6         4         6         6         6         6         6         6        11         5         5 
dram[3]:         6         5         4         4         4         6         6         6         6         6         6         5         6         8         6         5 
dram[4]:         6         6         5         5         4         4         6         4         6         6         6         4         6        10         6         5 
dram[5]:         6         6         6         6         6         5         6         6         6         6         6         6         6         6         8         6 
maximum service time to same row:
dram[0]:      1051      1969      1957      1972      1922      1987      1959      1935      1962      1963      1971      2009      1988      2004      2004      1941 
dram[1]:      1443      1978      1960      1976      1926      1991      1963      1938      1966      1966      1975      2013      1993      2007      2007      1944 
dram[2]:      1963      1929      1965      1957      1929      1953      1966      1954      1969      1919      1979      1982      1999      1991      2010      1969 
dram[3]:      1966      1932      1969      1960      1934      1957      1976      1959      1974      1924      1982      1985      2003      1996      2015      1972 
dram[4]:      1961      1937      1963      1965      1979      1960      1926      1963      1951      1928      2001      1990      1996      2000      1932      1976 
dram[5]:      1966      1941      1968      1969      1982      1965      1931      1966      1959      1932      2004      1994      2000      2004      1937      1981 
average row accesses per activate:
dram[0]:  1.298077  1.338645  1.287356  1.330693  1.304015  1.246801  1.359073  1.275362  1.343511  1.318352  1.365269  1.332689  1.420719  1.408805  1.411765  1.363083 
dram[1]:  1.339960  1.309942  1.304854  1.282443  1.304015  1.242259  1.346080  1.323308  1.301294  1.298893  1.307839  1.334630  1.402923  1.352113  1.388430  1.408805 
dram[2]:  1.342629  1.275142  1.322835  1.289827  1.284369  1.310345  1.301294  1.343511  1.338403  1.296501  1.365269  1.334638  1.420719  1.388430  1.346693  1.382716 
dram[3]:  1.296724  1.294798  1.287356  1.267925  1.286792  1.335938  1.320825  1.335863  1.310987  1.291743  1.390244  1.353175  1.357576  1.423729  1.328063  1.360324 
dram[4]:  1.267925  1.317647  1.328063  1.360324  1.296578  1.261993  1.318352  1.330813  1.315888  1.308550  1.333977  1.332031  1.414737  1.414737  1.385567  1.333333 
dram[5]:  1.330693  1.352113  1.292308  1.315068  1.296578  1.305344  1.298893  1.320825  1.308550  1.364341  1.347741  1.309021  1.426752  1.379877  1.371429  1.338645 
average row locality = 65568/49264 = 1.330952
number of total memory accesses made:
dram[0]:         0         0         0         0         0         0         0         0         0         0         0         0         0         0         0         0 
dram[1]:         0         0         0         0         0         0         0         0         0         0         0         0         0         0         0         0 
dram[2]:         0         0         0         0         0         0         0         0         0         0         0         0         0         0         0         0 
dram[3]:         0         0         0         0         0         0         0         0         0         0         0         0         0         0         0         0 
dram[4]:         0         0         0         0         0         0         0         0         0         0         0         0         0         0         0         0 
dram[5]:         0         0         0         0         0         0         0         0         0         0         0         0         0         0         0         0 
total accesses: 0
min_bank_accesses = 0!
min_chip_accesses = 0!
number of total read accesses:
dram[0]:       675       672       672       672       682       682       704       704       704       704       684       685       672       672       672       672 
dram[1]:       674       672       672       672       682       682       704       704       704       704       684       684       672       672       672       672 
dram[2]:       674       672       672       672       682       684       704       704       704       704       684       682       672       672       672       672 
dram[3]:       673       672       672       672       682       684       704       704       704       704       684       682       672       672       672       672 
dram[4]:       672       672       672       672       682       684       704       704       704       704       685       682       672       672       672       672 
dram[5]:       672       672       672       672       682       684       704       704       704       704       684       682       672       672       672       672 
total reads: 65554
bank skew: 704/672 = 1.05
chip skew: 10928/10924 = 1.00
number of total write accesses:
dram[0]:         0         0         0         0         0         0         0         0         0         0         0         4         0         0         0         0 
dram[1]:         0         0         0         0         0         0         0         0         0         0         0         2         0         0         0         0 
dram[2]:         0         0         0         0         0         0         0         0         0         0         0         0         0         0         0         0 
dram[3]:         0         0         0         0         0         0         0         0         0         0         0         0         0         0         0         0 
dram[4]:         0         0         0         0         0         0         0         0         0         0         6         0         0         0         0         0 
dram[5]:         0         0         0         0         0         0         0         0         0         0         2         0         0         0         0         0 
total reads: 14
min_bank_accesses = 0!
min_chip_accesses = 0!
average mf latency per bank:
dram[0]:        344       334       340       331       341       333       339       335       334       333       343       349       337       333       340       336
dram[1]:        337       337       339       335       340       340       341       342       335       334       337       351       333       335       338       339
dram[2]:        336       335       335       334       339       335       341       332       333       333       338       333       335       331       336       333
dram[3]:        342       336       340       335       342       337       340       335       336       336       340       338       338       334       338       334
dram[4]:        342       337       338       336       341       340       340       338       335       337       355       340       336       339       338       337
dram[5]:        339       336       332       337       337       337       336       341       336       336       353       338       333       333       334       336
maximum mf latency per bank:
dram[0]:        504       516       583       501       558       536       551       505       506       493       517       510       503       482       553       501
dram[1]:        502       513       514       520       551       551       537       607       497       510       510       536       518       518       530       571
dram[2]:        528       529       502       514       525       556       611       617       488       536       539       498       514       563       550       534
dram[3]:        560       492       530       484       500       492       581       499       599       525       513       526       576       486       600       487
dram[4]:        512       545       519       533       530       531       573       505       529       518       566       536       552       525       528       520
dram[5]:        581       489       486       567       512       515       541       525       552       521       524       544       538       522       537       520

Number of Memory Banks Accessed per Memory Operation per Warp (from 0):
0	0	0	0	0	0	0	0	0	0	0	0	0	0	0	0	0	0	0	0	0	0	0	0	0	0	0	0	0	0	0	0	0	0	0	0	0	0	0	0	0	0	0	0	0	0	0	0	0	0	0	0	0	0	0	0	0	0	0	0	0	0	0	0	0	0	0	0	0	0	0	0	0	0	0	0	0	0	0	0	0	0	0	0	0	0	0	0	0	0	0	0	0	0	0	0	
Average # of Memory Banks Accessed per Memory Operation per Warp=-nan

position of mrq chosen
0	0	0	0	0	0	0	0	0	0	0	0	0	0	0	0	

average position of mrq chosen = -nan
Memory Partition 0: 
Cache L2_bank_000:
MSHR contents

Cache L2_bank_001:
MSHR contents

In Dram Latency Queue (total = 0): 
DRAM[0]: 16 bks, busW=4 BL=8 CL=12, tRRD=2 tCCD=6, tRCD=12 tRAS=28 tRP=12 tRC=40
n_cmd=115520 n_nop=77307 n_act=8184 n_pre=8168 n_req=10932 n_rd=21856 n_write=5 bw_util=0.3785
n_activity=103219 dram_eff=0.4236
bk0: 1350a 95376i bk1: 1344a 96122i bk2: 1344a 95510i bk3: 1344a 96053i bk4: 1364a 94792i bk5: 1364a 94539i bk6: 1408a 94505i bk7: 1408a 93559i bk8: 1408a 95103i bk9: 1408a 94747i bk10: 1368a 95566i bk11: 1370a 94982i bk12: 1344a 96332i bk13: 1344a 96309i bk14: 1344a 95717i bk15: 1344a 95523i 
dram_util_bins: 0 0 0 0 0 0 0 0 0 0
dram_eff_bins: 0 0 0 0 0 0 0 0 0 0
mrqq: max=11 avg=0.619616
Memory Partition 1: 
Cache L2_bank_002:
MSHR contents

Cache L2_bank_003:
MSHR contents

In Dram Latency Queue (total = 0): 
DRAM[1]: 16 bks, busW=4 BL=8 CL=12, tRRD=2 tCCD=6, tRCD=12 tRAS=28 tRP=12 tRC=40
n_cmd=115520 n_nop=77204 n_act=8239 n_pre=8223 n_req=10928 n_rd=21852 n_write=2 bw_util=0.3784
n_activity=102633 dram_eff=0.4259
bk0: 1348a 95786i bk1: 1344a 95457i bk2: 1344a 95549i bk3: 1344a 94967i bk4: 1364a 94983i bk5: 1364a 93813i bk6: 1408a 94233i bk7: 1408a 93091i bk8: 1408a 94403i bk9: 1408a 94693i bk10: 1368a 94887i bk11: 1368a 94994i bk12: 1344a 96281i bk13: 1344a 95773i bk14: 1344a 95945i bk15: 1344a 95932i 
dram_util_bins: 0 0 0 0 0 0 0 0 0 0
dram_eff_bins: 0 0 0 0 0 0 0 0 0 0
mrqq: max=13 avg=0.662587
Memory Partition 2: 
Cache L2_bank_004:
MSHR contents

Cache L2_bank_005:
MSHR contents

In Dram Latency Queue (total = 0): 
DRAM[2]: 16 bks, busW=4 BL=8 CL=12, tRRD=2 tCCD=6, tRCD=12 tRAS=28 tRP=12 tRC=40
n_cmd=115520 n_nop=77286 n_act=8199 n_pre=8183 n_req=10926 n_rd=21852 n_write=0 bw_util=0.3783
n_activity=103271 dram_eff=0.4232
bk0: 1348a 95677i bk1: 1344a 95491i bk2: 1344a 95763i bk3: 1344a 95564i bk4: 1364a 94589i bk5: 1368a 95021i bk6: 1408a 93874i bk7: 1408a 94074i bk8: 1408a 95270i bk9: 1408a 94415i bk10: 1368a 95563i bk11: 1364a 95398i bk12: 1344a 96460i bk13: 1344a 96094i bk14: 1344a 95531i bk15: 1344a 95745i 
dram_util_bins: 0 0 0 0 0 0 0 0 0 0
dram_eff_bins: 0 0 0 0 0 0 0 0 0 0
mrqq: max=14 avg=0.642529
Memory Partition 3: 
Cache L2_bank_006:
MSHR contents

Cache L2_bank_007:
MSHR contents

In Dram Latency Queue (total = 0): 
DRAM[3]: 16 bks, busW=4 BL=8 CL=12, tRRD=2 tCCD=6, tRCD=12 tRAS=28 tRP=12 tRC=40
n_cmd=115520 n_nop=77212 n_act=8237 n_pre=8221 n_req=10925 n_rd=21850 n_write=0 bw_util=0.3783
n_activity=103405 dram_eff=0.4226
bk0: 1346a 95421i bk1: 1344a 95432i bk2: 1344a 95382i bk3: 1344a 95140i bk4: 1364a 94443i bk5: 1368a 94971i bk6: 1408a 94218i bk7: 1408a 94110i bk8: 1408a 94833i bk9: 1408a 94530i bk10: 1368a 95835i bk11: 1364a 95794i bk12: 1344a 95554i bk13: 1344a 96180i bk14: 1344a 95145i bk15: 1344a 95829i 
dram_util_bins: 0 0 0 0 0 0 0 0 0 0
dram_eff_bins: 0 0 0 0 0 0 0 0 0 0
mrqq: max=13 avg=0.637768
Memory Partition 4: 
Cache L2_bank_008:
MSHR contents

Cache L2_bank_009:
MSHR contents

In Dram Latency Queue (total = 0): 
DRAM[4]: 16 bks, busW=4 BL=8 CL=12, tRRD=2 tCCD=6, tRCD=12 tRAS=28 tRP=12 tRC=40
n_cmd=115520 n_nop=77252 n_act=8213 n_pre=8197 n_req=10931 n_rd=21850 n_write=8 bw_util=0.3784
n_activity=102293 dram_eff=0.4274
bk0: 1344a 94923i bk1: 1344a 95908i bk2: 1344a 95646i bk3: 1344a 95956i bk4: 1364a 94702i bk5: 1368a 94283i bk6: 1408a 93756i bk7: 1408a 94015i bk8: 1408a 94920i bk9: 1408a 94521i bk10: 1370a 94468i bk11: 1364a 95176i bk12: 1344a 96196i bk13: 1344a 96019i bk14: 1344a 95910i bk15: 1344a 95144i 
dram_util_bins: 0 0 0 0 0 0 0 0 0 0
dram_eff_bins: 0 0 0 0 0 0 0 0 0 0
mrqq: max=16 avg=0.648693
Memory Partition 5: 
Cache L2_bank_010:
MSHR contents

Cache L2_bank_011:
MSHR contents

In Dram Latency Queue (total = 0): 
DRAM[5]: 16 bks, busW=4 BL=8 CL=12, tRRD=2 tCCD=6, tRCD=12 tRAS=28 tRP=12 tRC=40
n_cmd=115520 n_nop=77302 n_act=8192 n_pre=8176 n_req=10926 n_rd=21848 n_write=2 bw_util=0.3783
n_activity=102394 dram_eff=0.4268
bk0: 1344a 95857i bk1: 1344a 96082i bk2: 1344a 95535i bk3: 1344a 95945i bk4: 1364a 94643i bk5: 1368a 94924i bk6: 1408a 93695i bk7: 1408a 93503i bk8: 1408a 94830i bk9: 1408a 94986i bk10: 1368a 95281i bk11: 1364a 94979i bk12: 1344a 96335i bk13: 1344a 95856i bk14: 1344a 95998i bk15: 1344a 95203i 
dram_util_bins: 0 0 0 0 0 0 0 0 0 0
dram_eff_bins: 0 0 0 0 0 0 0 0 0 0
mrqq: max=16 avg=0.628982

========= L2 cache stats =========
L2_cache_bank[0]: Access = 5507, Miss = 5465, Miss_rate = 0.992, Pending_hits = 9, Reservation_fails = 417
L2_cache_bank[1]: Access = 5524, Miss = 5463, Miss_rate = 0.989, Pending_hits = 0, Reservation_fails = 34
L2_cache_bank[2]: Access = 5492, Miss = 5464, Miss_rate = 0.995, Pending_hits = 6, Reservation_fails = 310
L2_cache_bank[3]: Access = 5524, Miss = 5462, Miss_rate = 0.989, Pending_hits = 0, Reservation_fails = 23
L2_cache_bank[4]: Access = 5492, Miss = 5464, Miss_rate = 0.995, Pending_hits = 0, Reservation_fails = 69
L2_cache_bank[5]: Access = 5462, Miss = 5462, Miss_rate = 1.000, Pending_hits = 0, Reservation_fails = 6
L2_cache_bank[6]: Access = 5477, Miss = 5463, Miss_rate = 0.997, Pending_hits = 0, Reservation_fails = 63
L2_cache_bank[7]: Access = 5462, Miss = 5462, Miss_rate = 1.000, Pending_hits = 0, Reservation_fails = 23
L2_cache_bank[8]: Access = 5524, Miss = 5463, Miss_rate = 0.989, Pending_hits = 1, Reservation_fails = 80
L2_cache_bank[9]: Access = 5462, Miss = 5462, Miss_rate = 1.000, Pending_hits = 0, Reservation_fails = 20
L2_cache_bank[10]: Access = 5524, Miss = 5462, Miss_rate = 0.989, Pending_hits = 0, Reservation_fails = 53
L2_cache_bank[11]: Access = 5462, Miss = 5462, Miss_rate = 1.000, Pending_hits = 0, Reservation_fails = 16
L2_total_cache_accesses = 65912
L2_total_cache_misses = 65554
L2_total_cache_miss_rate = 0.9946
L2_total_cache_pending_hits = 16
L2_total_cache_reservation_fails = 1114
L2_total_cache_breakdown:
	L2_cache_stats_breakdown[GLOBAL_ACC_R][MISS] = 65536
	L2_cache_stats_breakdown[GLOBAL_ACC_R][RESERVATION_FAIL] = 576
	L2_cache_stats_breakdown[CONST_ACC_R][HIT] = 11
	L2_cache_stats_breakdown[CONST_ACC_R][HIT_RESERVED] = 3
	L2_cache_stats_breakdown[CONST_ACC_R][MISS] = 1
	L2_cache_stats_breakdown[CONST_ACC_R][RESERVATION_FAIL] = 108
	L2_cache_stats_breakdown[GLOBAL_ACC_W][HIT] = 245
	L2_cache_stats_breakdown[GLOBAL_ACC_W][HIT_RESERVED] = 1
	L2_cache_stats_breakdown[GLOBAL_ACC_W][MISS] = 10
	L2_cache_stats_breakdown[INST_ACC_R][HIT] = 86
	L2_cache_stats_breakdown[INST_ACC_R][HIT_RESERVED] = 12
	L2_cache_stats_breakdown[INST_ACC_R][MISS] = 7
	L2_cache_stats_breakdown[INST_ACC_R][RESERVATION_FAIL] = 430
L2_cache_data_port_util = 0.001
L2_cache_fill_port_util = 0.250

icnt_total_pkts_mem_to_simt=328506
icnt_total_pkts_simt_to_mem=66168
LD_mem_lat_dist  0 0 0 0 0 0 0 0 0 0 0 0 0 0 0 0 0 0 0 0 0 0 0 0 0 0 0
ST_mem_lat_dist  0 0 0 0 0 0 0 0 0 0 0 0 0 0 0 0 0 0 0 0 0 0 0 0 0 0 0
----------------------------Interconnect-DETAILS--------------------------------
Class 0:
Packet latency average = 20.3206
	minimum = 6
	maximum = 146
Network latency average = 16.6002
	minimum = 6
	maximum = 123
Slowest packet = 533
Flit latency average = 16.7359
	minimum = 6
	maximum = 119
Slowest flit = 323212
Fragmentation average = 0
	minimum = 0
	maximum = 0
Injected packet rate average = 0.0557883
	minimum = 0.0470771 (at node 0)
	maximum = 0.0631199 (at node 16)
Accepted packet rate average = 0.0557883
	minimum = 0.0470771 (at node 0)
	maximum = 0.0631199 (at node 16)
Injected flit rate average = 0.167027
	minimum = 0.0472599 (at node 0)
	maximum = 0.314285 (at node 15)
Accepted flit rate average= 0.167027
	minimum = 0.0624114 (at node 20)
	maximum = 0.263906 (at node 1)
Injected packet length average = 2.99395
Accepted packet length average = 2.99395
Total in-flight flits = 0 (0 measured)
====== Overall Traffic Statistics ======
====== Traffic class 0 ======
Packet latency average = 20.3206 (1 samples)
	minimum = 6 (1 samples)
	maximum = 146 (1 samples)
Network latency average = 16.6002 (1 samples)
	minimum = 6 (1 samples)
	maximum = 123 (1 samples)
Flit latency average = 16.7359 (1 samples)
	minimum = 6 (1 samples)
	maximum = 119 (1 samples)
Fragmentation average = 0 (1 samples)
	minimum = 0 (1 samples)
	maximum = 0 (1 samples)
Injected packet rate average = 0.0557883 (1 samples)
	minimum = 0.0470771 (1 samples)
	maximum = 0.0631199 (1 samples)
Accepted packet rate average = 0.0557883 (1 samples)
	minimum = 0.0470771 (1 samples)
	maximum = 0.0631199 (1 samples)
Injected flit rate average = 0.167027 (1 samples)
	minimum = 0.0472599 (1 samples)
	maximum = 0.314285 (1 samples)
Accepted flit rate average = 0.167027 (1 samples)
	minimum = 0.0624114 (1 samples)
	maximum = 0.263906 (1 samples)
Injected packet size average = 2.99395 (1 samples)
Accepted packet size average = 2.99395 (1 samples)
Hops average = 1 (1 samples)
----------------------------END-of-Interconnect-DETAILS-------------------------


gpgpu_simulation_time = 0 days, 0 hrs, 1 min, 47 sec (107 sec)
gpgpu_simulation_rate = 228426 (inst/sec)
gpgpu_simulation_rate = 817 (cycle/sec)
GPGPU-Sim: synchronize waiting for inactive GPU simulation
GPGPU-Sim API: Stream Manager State
GPGPU-Sim: detected inactive GPU simulation thread
GPU time: 105894.468750 msecs.
Reading back GPU result...
Checking GPU results...
..running CPU scalar product calculation
...comparing the results
L1 error: 3.070748E-08
TEST PASSED
Shutting down...
