

        *** GPGPU-Sim Simulator Version 3.2.2  [build 0] ***


GPGPU-Sim PTX: simulation mode 0 (can change with PTX_SIM_MODE_FUNC environment variable:
               1=functional simulation only, 0=detailed performance simulator)
GPGPU-Sim: Configuration options:

-network_mode                           1 # Interconnection network mode
-inter_config_file   config_fermi_islip.icnt # Interconnection network config file
-gpgpu_ptx_use_cuobjdump                    1 # Use cuobjdump to extract ptx and sass from binaries
-gpgpu_experimental_lib_support                    0 # Try to extract code from cuda libraries [Broken because of unknown cudaGetExportTable]
-gpgpu_ptx_convert_to_ptxplus                    0 # Convert SASS (native ISA) to ptxplus and run ptxplus
-gpgpu_ptx_force_max_capability                   20 # Force maximum compute capability
-gpgpu_ptx_inst_debug_to_file                    0 # Dump executed instructions' debug information to file
-gpgpu_ptx_inst_debug_file       inst_debug.txt # Executed instructions' debug output file
-gpgpu_ptx_inst_debug_thread_uid                    1 # Thread UID for executed instructions' debug output
-gpgpu_simd_model                       1 # 1 = post-dominator
-gpgpu_shader_core_pipeline              1536:32 # shader core pipeline config, i.e., {<nthread>:<warpsize>}
-gpgpu_tex_cache:l1  4:128:24,L:R:m:N:L,F:128:4,128:2 # per-shader L1 texture cache  (READ-ONLY) config  {<nsets>:<bsize>:<assoc>,<rep>:<wr>:<alloc>:<wr_alloc>,<mshr>:<N>:<merge>,<mq>:<rf>}
-gpgpu_const_cache:l1 64:64:2,L:R:f:N:L,A:2:32,4 # per-shader L1 constant memory cache  (READ-ONLY) config  {<nsets>:<bsize>:<assoc>,<rep>:<wr>:<alloc>:<wr_alloc>,<mshr>:<N>:<merge>,<mq>} 
-gpgpu_cache:il1     4:128:4,L:R:f:N:L,A:2:32,4 # shader L1 instruction cache config  {<nsets>:<bsize>:<assoc>,<rep>:<wr>:<alloc>:<wr_alloc>,<mshr>:<N>:<merge>,<mq>} 
-gpgpu_cache:dl1     32:128:2,L:L:m:N:H,A:32:8,8 # per-shader L1 data cache config  {<nsets>:<bsize>:<assoc>,<rep>:<wr>:<alloc>:<wr_alloc>,<mshr>:<N>:<merge>,<mq> | none}
-gpgpu_cache:dl1PrefL1                 none # per-shader L1 data cache config  {<nsets>:<bsize>:<assoc>,<rep>:<wr>:<alloc>:<wr_alloc>,<mshr>:<N>:<merge>,<mq> | none}
-gpgpu_cache:dl1PreShared                 none # per-shader L1 data cache config  {<nsets>:<bsize>:<assoc>,<rep>:<wr>:<alloc>:<wr_alloc>,<mshr>:<N>:<merge>,<mq> | none}
-gmem_skip_L1D                          0 # global memory access skip L1D cache (implements -Xptxas -dlcm=cg, default=no skip)
-gpgpu_perfect_mem                      0 # enable perfect memory mode (no cache miss)
-n_regfile_gating_group                    4 # group of lanes that should be read/written together)
-gpgpu_clock_gated_reg_file                    0 # enable clock gated reg file for power calculations
-gpgpu_clock_gated_lanes                    0 # enable clock gated lanes for power calculations
-gpgpu_shader_registers                32768 # Number of registers per shader core. Limits number of concurrent CTAs. (default 8192)
-gpgpu_shader_cta                       8 # Maximum number of concurrent CTAs in shader (default 8)
-gpgpu_num_cta_barriers                   16 # Maximum number of named barriers per CTA (default 16)
-gpgpu_n_clusters                      15 # number of processing clusters
-gpgpu_n_cores_per_cluster                    1 # number of simd cores per cluster
-gpgpu_n_cluster_ejection_buffer_size                    8 # number of packets in ejection buffer
-gpgpu_n_ldst_response_buffer_size                    2 # number of response packets in ld/st unit ejection buffer
-gpgpu_shmem_size                   16384 # Size of shared memory per shader core (default 16kB)
-gpgpu_shmem_size                   49152 # Size of shared memory per shader core (default 16kB)
-gpgpu_shmem_size_PrefL1                16384 # Size of shared memory per shader core (default 16kB)
-gpgpu_shmem_size_PrefShared                16384 # Size of shared memory per shader core (default 16kB)
-gpgpu_shmem_num_banks                   32 # Number of banks in the shared memory in each shader core (default 16)
-gpgpu_shmem_limited_broadcast                    0 # Limit shared memory to do one broadcast per cycle (default on)
-gpgpu_shmem_warp_parts                    1 # Number of portions a warp is divided into for shared memory bank conflict check 
-gpgpu_warpdistro_shader                   -1 # Specify which shader core to collect the warp size distribution from
-gpgpu_warp_issue_shader                    0 # Specify which shader core to collect the warp issue distribution from
-gpgpu_local_mem_map                    1 # Mapping from local memory space address to simulated GPU physical address space (default = enabled)
-gpgpu_num_reg_banks                   16 # Number of register banks (default = 8)
-gpgpu_reg_bank_use_warp_id                    0 # Use warp ID in mapping registers to banks (default = off)
-gpgpu_operand_collector_num_units_sp                    6 # number of collector units (default = 4)
-gpgpu_operand_collector_num_units_sfu                    8 # number of collector units (default = 4)
-gpgpu_operand_collector_num_units_mem                    2 # number of collector units (default = 2)
-gpgpu_operand_collector_num_units_gen                    0 # number of collector units (default = 0)
-gpgpu_operand_collector_num_in_ports_sp                    2 # number of collector unit in ports (default = 1)
-gpgpu_operand_collector_num_in_ports_sfu                    1 # number of collector unit in ports (default = 1)
-gpgpu_operand_collector_num_in_ports_mem                    1 # number of collector unit in ports (default = 1)
-gpgpu_operand_collector_num_in_ports_gen                    0 # number of collector unit in ports (default = 0)
-gpgpu_operand_collector_num_out_ports_sp                    2 # number of collector unit in ports (default = 1)
-gpgpu_operand_collector_num_out_ports_sfu                    1 # number of collector unit in ports (default = 1)
-gpgpu_operand_collector_num_out_ports_mem                    1 # number of collector unit in ports (default = 1)
-gpgpu_operand_collector_num_out_ports_gen                    0 # number of collector unit in ports (default = 0)
-gpgpu_coalesce_arch                   13 # Coalescing arch (default = 13, anything else is off for now)
-gpgpu_num_sched_per_core                    2 # Number of warp schedulers per core
-gpgpu_max_insn_issue_per_warp                    1 # Max number of instructions that can be issued per warp in one cycle by scheduler
-gpgpu_simt_core_sim_order                    1 # Select the simulation order of cores in a cluster (0=Fix, 1=Round-Robin)
-gpgpu_pipeline_widths        2,1,1,2,1,1,2 # Pipeline widths ID_OC_SP,ID_OC_SFU,ID_OC_MEM,OC_EX_SP,OC_EX_SFU,OC_EX_MEM,EX_WB
-gpgpu_num_sp_units                     2 # Number of SP units (default=1)
-gpgpu_num_sfu_units                    1 # Number of SF units (default=1)
-gpgpu_num_mem_units                    1 # Number if ldst units (default=1) WARNING: not hooked up to anything
-gpgpu_scheduler                      gto # Scheduler configuration: < lrr | gto | two_level_active > If two_level_active:<num_active_warps>:<inner_prioritization>:<outer_prioritization>For complete list of prioritization values see shader.h enum scheduler_prioritization_typeDefault: gto
-gpgpu_dram_scheduler                    1 # 0 = fifo, 1 = FR-FCFS (defaul)
-gpgpu_dram_partition_queues              8:8:8:8 # i2$:$2d:d2$:$2i
-l2_ideal                               0 # Use a ideal L2 cache that always hit
-gpgpu_cache:dl2     64:128:8,L:B:m:W:L,A:32:4,4:0,32 # unified banked L2 data cache config  {<nsets>:<bsize>:<assoc>,<rep>:<wr>:<alloc>:<wr_alloc>,<mshr>:<N>:<merge>,<mq>}
-gpgpu_cache:dl2_texture_only                    0 # L2 cache used for texture only
-gpgpu_n_mem                            6 # number of memory modules (e.g. memory controllers) in gpu
-gpgpu_n_sub_partition_per_mchannel                    2 # number of memory subpartition in each memory module
-gpgpu_n_mem_per_ctrlr                    2 # number of memory chips per memory controller
-gpgpu_memlatency_stat                   14 # track and display latency statistics 0x2 enables MC, 0x4 enables queue logs
-gpgpu_frfcfs_dram_sched_queue_size                   16 # 0 = unlimited (default); # entries per chip
-gpgpu_dram_return_queue_size                  116 # 0 = unlimited (default); # entries per chip
-gpgpu_dram_buswidth                    4 # default = 4 bytes (8 bytes per cycle at DDR)
-gpgpu_dram_burst_length                    8 # Burst length of each DRAM request (default = 4 data bus cycle)
-dram_data_command_freq_ratio                    4 # Frequency ratio between DRAM data bus and command bus (default = 2 times, i.e. DDR)
-gpgpu_dram_timing_opt nbk=16:CCD=2:RRD=6:RCD=12:RAS=28:RP=12:RC=40: CL=12:WL=4:CDLR=5:WR=12:nbkgrp=4:CCDL=3:RTPL=2 # DRAM timing parameters = {nbk:tCCD:tRRD:tRCD:tRAS:tRP:tRC:CL:WL:tCDLR:tWR:nbkgrp:tCCDL:tRTPL}
-rop_latency                          120 # ROP queue latency (default 85)
-dram_latency                         100 # DRAM latency (default 30)
-gpgpu_mem_addr_mapping dramid@8;00000000.00000000.00000000.00000000.0000RRRR.RRRRRRRR.BBBCCCCB.CCSSSSSS # mapping memory address to dram model {dramid@<start bit>;<memory address map>}
-gpgpu_mem_addr_test                    0 # run sweep test to check address mapping for aliased address
-gpgpu_mem_address_mask                    1 # 0 = old addressing mask, 1 = new addressing mask, 2 = new add. mask + flipped bank sel and chip sel bits
-gpuwattch_xml_file  gpuwattch_gtx480.xml # GPUWattch XML file
-power_simulation_enabled                    1 # Turn on power simulator (1=On, 0=Off)
-power_per_cycle_dump                    0 # Dump detailed power output each cycle
-power_trace_enabled                    0 # produce a file for the power trace (1=On, 0=Off)
-power_trace_zlevel                     6 # Compression level of the power trace output log (0=no comp, 9=highest)
-steady_power_levels_enabled                    0 # produce a file for the steady power levels (1=On, 0=Off)
-steady_state_definition                  8:4 # allowed deviation:number of samples
-gpgpu_max_cycle                        0 # terminates gpu simulation early (0 = no limit)
-gpgpu_max_insn                         0 # terminates gpu simulation early (0 = no limit)
-gpgpu_max_cta                          0 # terminates gpu simulation early (0 = no limit)
-gpgpu_runtime_stat                   500 # display runtime statistics such as dram utilization {<freq>:<flag>}
-liveness_message_freq                    1 # Minimum number of seconds between simulation liveness messages (0 = always print)
-gpgpu_flush_l1_cache                    0 # Flush L1 cache at the end of each kernel call
-gpgpu_flush_l2_cache                    0 # Flush L2 cache at the end of each kernel call
-gpgpu_deadlock_detect                    1 # Stop the simulation at deadlock (1=on (default), 0=off)
-gpgpu_ptx_instruction_classification                    0 # if enabled will classify ptx instruction types per kernel (Max 255 kernels now)
-gpgpu_ptx_sim_mode                     0 # Select between Performance (default) or Functional simulation (1)
-gpgpu_clock_domains 700.0:700.0:700.0:924.0 # Clock Domain Frequencies in MhZ {<Core Clock>:<ICNT Clock>:<L2 Clock>:<DRAM Clock>}
-gpgpu_max_concurrent_kernel                    8 # maximum kernels that can run concurrently on GPU
-gpgpu_cflog_interval                    0 # Interval between each snapshot in control flow logger
-visualizer_enabled                     0 # Turn on visualizer output (1=On, 0=Off)
-visualizer_outputfile                 NULL # Specifies the output log file for visualizer
-visualizer_zlevel                      6 # Compression level of the visualizer output log (0=no comp, 9=highest)
-trace_enabled                          0 # Turn on traces
-trace_components                    none # comma seperated list of traces to enable. Complete list found in trace_streams.tup. Default none
-trace_sampling_core                    0 # The core which is printed using CORE_DPRINTF. Default 0
-trace_sampling_memory_partition                   -1 # The memory partition which is printed using MEMPART_DPRINTF. Default -1 (i.e. all)
-enable_ptx_file_line_stats                    1 # Turn on PTX source line statistic profiling. (1 = On)
-ptx_line_stats_filename gpgpu_inst_stats.txt # Output file for PTX source line statistics.
-save_embedded_ptx                      0 # saves ptx files embedded in binary as <n>.ptx
-keep                                   0 # keep intermediate files created by GPGPU-Sim when interfacing with external programs
-gpgpu_ptx_save_converted_ptxplus                    0 # Saved converted ptxplus to a file
-ptx_opcode_latency_int         4,13,4,5,145 # Opcode latencies for integers <ADD,MAX,MUL,MAD,DIV>Default 1,1,19,25,145
-ptx_opcode_latency_fp          4,13,4,5,39 # Opcode latencies for single precision floating points <ADD,MAX,MUL,MAD,DIV>Default 1,1,1,1,30
-ptx_opcode_latency_dp         8,19,8,8,330 # Opcode latencies for double precision floating points <ADD,MAX,MUL,MAD,DIV>Default 8,8,8,8,335
-ptx_opcode_initiation_int            1,2,2,1,8 # Opcode initiation intervals for integers <ADD,MAX,MUL,MAD,DIV>Default 1,1,4,4,32
-ptx_opcode_initiation_fp            1,2,1,1,4 # Opcode initiation intervals for single precision floating points <ADD,MAX,MUL,MAD,DIV>Default 1,1,1,1,5
-ptx_opcode_initiation_dp         8,16,8,8,130 # Opcode initiation intervals for double precision floating points <ADD,MAX,MUL,MAD,DIV>Default 8,8,8,8,130
DRAM Timing Options:
nbk                                    16 # number of banks
CCD                                     2 # column to column delay
RRD                                     6 # minimal delay between activation of rows in different banks
RCD                                    12 # row to column delay
RAS                                    28 # time needed to activate row
RP                                     12 # time needed to precharge (deactivate) row
RC                                     40 # row cycle time
CDLR                                    5 # switching from write to read (changes tWTR)
WR                                     12 # last data-in to row precharge
CL                                     12 # CAS latency
WL                                      4 # Write latency
nbkgrp                                  4 # number of bank groups
CCDL                                    3 # column to column delay between accesses to different bank groups
RTPL                                    2 # read to precharge delay between accesses to different bank groups
Total number of memory sub partition = 12
addr_dec_mask[CHIP]  = 0000000000000000 	high:64 low:0
addr_dec_mask[BK]    = 000000000000e100 	high:16 low:8
addr_dec_mask[ROW]   = 000000000fff0000 	high:28 low:16
addr_dec_mask[COL]   = 0000000000001eff 	high:13 low:0
addr_dec_mask[BURST] = 000000000000003f 	high:6 low:0
sub_partition_id_mask = 0000000000000100
GPGPU-Sim uArch: clock freqs: 700000000.000000:700000000.000000:700000000.000000:924000000.000000
GPGPU-Sim uArch: clock periods: 0.00000000142857142857:0.00000000142857142857:0.00000000142857142857:0.00000000108225108225
*** Initializing Memory Statistics ***
GPGPU-Sim uArch: interconnect node map (shaderID+MemID to icntID)
GPGPU-Sim uArch: Memory nodes ID start from index: 15
GPGPU-Sim uArch:    0   1   2   3   4
GPGPU-Sim uArch:    5   6   7   8   9
GPGPU-Sim uArch:   10  11  12  13  14
GPGPU-Sim uArch:   15  16  17  18  19
GPGPU-Sim uArch:   20  21  22  23  24
GPGPU-Sim uArch:   25  26
GPGPU-Sim uArch: interconnect node reverse map (icntID to shaderID+MemID)
GPGPU-Sim uArch: Memory nodes start from ID: 15
GPGPU-Sim uArch:    0   1   2   3   4
GPGPU-Sim uArch:    5   6   7   8   9
GPGPU-Sim uArch:   10  11  12  13  14
GPGPU-Sim uArch:   15  16  17  18  19
GPGPU-Sim uArch:   20  21  22  23  24
GPGPU-Sim uArch:   25  26
db8fd71b22e5f9e87a0df9a155b78fdf  /home/scratch/adwait/applications/benchmarks/CUDA/KMN/gpgpu_ptx_sim__KMN
GPGPU-Sim uArch: performance model initialization complete.
GPGPU-Sim PTX: __cudaRegisterFatBinary, fat_cubin_handle = 1, filename=kmeans_cuda.cu
self exe links to: /home/scratch/adwait/applications/benchmarks/CUDA/KMN/gpgpu_ptx_sim__KMN
Running md5sum using "md5sum /home/scratch/adwait/applications/benchmarks/CUDA/KMN/gpgpu_ptx_sim__KMN "
Running cuobjdump using "$CUDA_INSTALL_PATH/bin/cuobjdump -ptx -elf -sass /home/scratch/adwait/applications/benchmarks/CUDA/KMN/gpgpu_ptx_sim__KMN > _cuobjdump_complete_output_Adh8TZ"
Parsing file _cuobjdump_complete_output_Adh8TZ
######### cuobjdump parser ########
## Adding new section ELF
Adding arch: sm_20
Adding identifier: kmeans_cuda.cu
## Adding new section PTX
Adding ptx filename: _cuobjdump_1.ptx
Adding arch: sm_20
Adding identifier: kmeans_cuda.cu
Done parsing!!!
GPGPU-Sim PTX: __cudaRegisterFunction _Z11kmeansPointPfiiiPiS_S_S0_ : hostFun 0x0x402c28, fat_cubin_handle = 1
GPGPU-Sim PTX: instruction assembly for function '_Z14invert_mappingPfS_ii'...   done.
GPGPU-Sim PTX: finding reconvergence points for '_Z14invert_mappingPfS_ii'...
GPGPU-Sim PTX: Finding dominators for '_Z14invert_mappingPfS_ii'...
GPGPU-Sim PTX: Finding immediate dominators for '_Z14invert_mappingPfS_ii'...
GPGPU-Sim PTX: Finding postdominators for '_Z14invert_mappingPfS_ii'...
GPGPU-Sim PTX: Finding immediate postdominators for '_Z14invert_mappingPfS_ii'...
GPGPU-Sim PTX: pre-decoding instructions for '_Z14invert_mappingPfS_ii'...
GPGPU-Sim PTX: reconvergence points for _Z14invert_mappingPfS_ii...
GPGPU-Sim PTX:  1 (potential) branch divergence @  PC=0x038 (_1.ptx:70) @%p1 bra $Lt_0_2050;
GPGPU-Sim PTX:    immediate post dominator      @  PC=0x110 (_1.ptx:103) exit;
GPGPU-Sim PTX:  2 (potential) branch divergence @  PC=0x058 (_1.ptx:74) @%p2 bra $Lt_0_2562;
GPGPU-Sim PTX:    immediate post dominator      @  PC=0x110 (_1.ptx:103) exit;
GPGPU-Sim PTX:  3 (potential) branch divergence @  PC=0x108 (_1.ptx:99) @%p3 bra $Lt_0_3074;
GPGPU-Sim PTX:    immediate post dominator      @  PC=0x110 (_1.ptx:103) exit;
GPGPU-Sim PTX: ... end of reconvergence points for _Z14invert_mappingPfS_ii
GPGPU-Sim PTX: ... done pre-decoding instructions for '_Z14invert_mappingPfS_ii'.
GPGPU-Sim PTX: instruction assembly for function '_Z11kmeansPointPfiiiPiS_S_S0_'...   done.
GPGPU-Sim PTX: finding reconvergence points for '_Z11kmeansPointPfiiiPiS_S_S0_'...
GPGPU-Sim PTX: Finding dominators for '_Z11kmeansPointPfiiiPiS_S_S0_'...
GPGPU-Sim PTX: Finding immediate dominators for '_Z11kmeansPointPfiiiPiS_S_S0_'...
GPGPU-Sim PTX: Finding postdominators for '_Z11kmeansPointPfiiiPiS_S_S0_'...
GPGPU-Sim PTX: Finding immediate postdominators for '_Z11kmeansPointPfiiiPiS_S_S0_'...
GPGPU-Sim PTX: pre-decoding instructions for '_Z11kmeansPointPfiiiPiS_S_S0_'...
GPGPU-Sim PTX: reconvergence points for _Z11kmeansPointPfiiiPiS_S_S0_...
GPGPU-Sim PTX:  1 (potential) branch divergence @  PC=0x180 (_1.ptx:136) @!%p1 bra $Lt_1_4866;
GPGPU-Sim PTX:    immediate post dominator      @  PC=0x320 (_1.ptx:202) @!%p1 bra $Lt_1_7682;
GPGPU-Sim PTX:  2 (potential) branch divergence @  PC=0x1a0 (_1.ptx:140) @%p2 bra $Lt_1_8194;
GPGPU-Sim PTX:    immediate post dominator      @  PC=0x320 (_1.ptx:202) @!%p1 bra $Lt_1_7682;
GPGPU-Sim PTX:  3 (potential) branch divergence @  PC=0x1e8 (_1.ptx:151) @!%p3 bra $Lt_1_8450;
GPGPU-Sim PTX:    immediate post dominator      @  PC=0x2c8 (_1.ptx:185) setp.lt.f32 %p5, %f2, %f1;
GPGPU-Sim PTX:  4 (potential) branch divergence @  PC=0x2b0 (_1.ptx:180) @%p4 bra $Lt_1_6402;
GPGPU-Sim PTX:    immediate post dominator      @  PC=0x2b8 (_1.ptx:181) bra.uni $Lt_1_5890;
GPGPU-Sim PTX:  5 (potential) branch divergence @  PC=0x2b8 (_1.ptx:181) bra.uni $Lt_1_5890;
GPGPU-Sim PTX:    immediate post dominator      @  PC=0x2c8 (_1.ptx:185) setp.lt.f32 %p5, %f2, %f1;
GPGPU-Sim PTX:  6 (potential) branch divergence @  PC=0x2d0 (_1.ptx:186) @!%p5 bra $Lt_1_6914;
GPGPU-Sim PTX:    immediate post dominator      @  PC=0x2e8 (_1.ptx:192) add.s32 %r18, %r18, 1;
GPGPU-Sim PTX:  7 (potential) branch divergence @  PC=0x2f8 (_1.ptx:194) @%p6 bra $Lt_1_5634;
GPGPU-Sim PTX:    immediate post dominator      @  PC=0x300 (_1.ptx:195) bra.uni $Lt_1_4610;
GPGPU-Sim PTX:  8 (potential) branch divergence @  PC=0x300 (_1.ptx:195) bra.uni $Lt_1_4610;
GPGPU-Sim PTX:    immediate post dominator      @  PC=0x320 (_1.ptx:202) @!%p1 bra $Lt_1_7682;
GPGPU-Sim PTX:  9 (potential) branch divergence @  PC=0x310 (_1.ptx:198) bra.uni $Lt_1_4610;
GPGPU-Sim PTX:    immediate post dominator      @  PC=0x320 (_1.ptx:202) @!%p1 bra $Lt_1_7682;
GPGPU-Sim PTX: 10 (potential) branch divergence @  PC=0x320 (_1.ptx:202) @!%p1 bra $Lt_1_7682;
GPGPU-Sim PTX:    immediate post dominator      @  PC=0x350 (_1.ptx:211) exit;
GPGPU-Sim PTX: ... end of reconvergence points for _Z11kmeansPointPfiiiPiS_S_S0_
GPGPU-Sim PTX: ... done pre-decoding instructions for '_Z11kmeansPointPfiiiPiS_S_S0_'.
GPGPU-Sim PTX: allocating global region for "t_features" from 0x100 to 0x104 (global memory space)
GPGPU-Sim PTX: allocating global region for "t_features_flipped" from 0x104 to 0x108 (global memory space)
GPGPU-Sim PTX: allocating global region for "t_clusters" from 0x108 to 0x10c (global memory space)
GPGPU-Sim PTX: finished parsing EMBEDDED .ptx file _1.ptx
Adding _cuobjdump_1.ptx with cubin handle 1
GPGPU-Sim PTX: extracting embedded .ptx to temporary file "_ptx_4RtEKs"
Running: cat _ptx_4RtEKs | sed 's/.version 1.5/.version 1.4/' | sed 's/, texmode_independent//' | sed 's/\(\.extern \.const\[1\] .b8 \w\+\)\[\]/\1\[1\]/' | sed 's/const\[.\]/const\[0\]/g' > _ptx2_TQqABV
GPGPU-Sim PTX: generating ptxinfo using "$CUDA_INSTALL_PATH/bin/ptxas --gpu-name=sm_20 -v _ptx2_TQqABV --output-file  /dev/null 2> _ptx_4RtEKsinfo"
GPGPU-Sim PTX: Kernel '_Z11kmeansPointPfiiiPiS_S_S0_' : regs=15, lmem=0, smem=0, cmem=88
GPGPU-Sim PTX: Kernel '_Z14invert_mappingPfS_ii' : regs=10, lmem=0, smem=0, cmem=56
GPGPU-Sim PTX: removing ptxinfo using "rm -f _ptx_4RtEKs _ptx2_TQqABV _ptx_4RtEKsinfo"
GPGPU-Sim PTX: loading globals with explicit initializers... 
GPGPU-Sim PTX: finished loading globals (0 bytes total).
GPGPU-Sim PTX: loading constants with explicit initializers...  done.
GPGPU-Sim PTX: __cudaRegisterFunction _Z14invert_mappingPfS_ii : hostFun 0x0x402a98, fat_cubin_handle = 1
GPGPU-Sim PTX: in __cudaRegisterTexture:
GPGPU-Sim PTX:   int dim = 1
GPGPU-Sim PTX:   int norm = 0
GPGPU-Sim PTX:   int ext = 0
GPGPU-Sim PTX:   Execution warning: Not finished implementing "void __cudaRegisterTexture(void**, const textureReference*, const void**, const char*, int, int, int)"
GPGPU-Sim PTX: in __cudaRegisterTexture:
GPGPU-Sim PTX:   int dim = 1
GPGPU-Sim PTX:   int norm = 0
GPGPU-Sim PTX:   int ext = 0
GPGPU-Sim PTX:   Execution warning: Not finished implementing "void __cudaRegisterTexture(void**, const textureReference*, const void**, const char*, int, int, int)"
GPGPU-Sim PTX: in __cudaRegisterTexture:
GPGPU-Sim PTX:   int dim = 1
GPGPU-Sim PTX:   int norm = 0
GPGPU-Sim PTX:   int ext = 0
GPGPU-Sim PTX:   Execution warning: Not finished implementing "void __cudaRegisterTexture(void**, const textureReference*, const void**, const char*, int, int, int)"

I/O completed

Number of objects: 28672
Number of features: 138

GPGPU-Sim PTX: cudaLaunch for 0x0x402c28 (mode=performance simulation) on stream 0
GPGPU-Sim PTX: pushing kernel '_Z11kmeansPointPfiiiPiS_S_S0_' to stream 0, gridDim= (11,11,1) blockDim = (256,1,1) 
kernel '_Z11kmeansPointPfiiiPiS_S_S0_' transfer to GPU hardware scheduler
GPGPU-Sim uArch: Shader 1 bind to kernel 1 '_Z11kmeansPointPfiiiPiS_S_S0_'
GPGPU-Sim uArch: CTA/core = 6, limited by: threads
GPGPU-Sim uArch: core:  1, cta: 0 initialized @(1,0)
GPGPU-Sim uArch: Shader 2 bind to kernel 1 '_Z11kmeansPointPfiiiPiS_S_S0_'
GPGPU-Sim uArch: core:  2, cta: 0 initialized @(1,0)
GPGPU-Sim uArch: Shader 3 bind to kernel 1 '_Z11kmeansPointPfiiiPiS_S_S0_'
GPGPU-Sim uArch: core:  3, cta: 0 initialized @(1,0)
GPGPU-Sim uArch: Shader 4 bind to kernel 1 '_Z11kmeansPointPfiiiPiS_S_S0_'
GPGPU-Sim uArch: core:  4, cta: 0 initialized @(1,0)
GPGPU-Sim uArch: Shader 5 bind to kernel 1 '_Z11kmeansPointPfiiiPiS_S_S0_'
GPGPU-Sim uArch: core:  5, cta: 0 initialized @(1,0)
GPGPU-Sim uArch: Shader 6 bind to kernel 1 '_Z11kmeansPointPfiiiPiS_S_S0_'
GPGPU-Sim uArch: core:  6, cta: 0 initialized @(1,0)
GPGPU-Sim uArch: Shader 7 bind to kernel 1 '_Z11kmeansPointPfiiiPiS_S_S0_'
GPGPU-Sim uArch: core:  7, cta: 0 initialized @(1,0)
GPGPU-Sim uArch: Shader 8 bind to kernel 1 '_Z11kmeansPointPfiiiPiS_S_S0_'
GPGPU-Sim uArch: core:  8, cta: 0 initialized @(1,0)
GPGPU-Sim uArch: Shader 9 bind to kernel 1 '_Z11kmeansPointPfiiiPiS_S_S0_'
GPGPU-Sim uArch: core:  9, cta: 0 initialized @(1,0)
GPGPU-Sim uArch: Shader 10 bind to kernel 1 '_Z11kmeansPointPfiiiPiS_S_S0_'
GPGPU-Sim uArch: core: 10, cta: 0 initialized @(1,0)
GPGPU-Sim uArch: Shader 11 bind to kernel 1 '_Z11kmeansPointPfiiiPiS_S_S0_'
GPGPU-Sim uArch: core: 11, cta: 0 initialized @(1,0)
GPGPU-Sim uArch: Shader 12 bind to kernel 1 '_Z11kmeansPointPfiiiPiS_S_S0_'
GPGPU-Sim uArch: core: 12, cta: 0 initialized @(1,0)
GPGPU-Sim uArch: Shader 13 bind to kernel 1 '_Z11kmeansPointPfiiiPiS_S_S0_'
GPGPU-Sim uArch: core: 13, cta: 0 initialized @(1,0)
GPGPU-Sim uArch: Shader 14 bind to kernel 1 '_Z11kmeansPointPfiiiPiS_S_S0_'
GPGPU-Sim uArch: core: 14, cta: 0 initialized @(1,0)
GPGPU-Sim uArch: Shader 0 bind to kernel 1 '_Z11kmeansPointPfiiiPiS_S_S0_'
GPGPU-Sim uArch: core:  0, cta: 0 initialized @(1,0)
GPGPU-Sim uArch: core:  1, cta: 1 initialized @(2,0)
GPGPU-Sim uArch: core:  2, cta: 1 initialized @(2,0)
GPGPU-Sim uArch: core:  3, cta: 1 initialized @(2,0)
GPGPU-Sim uArch: core:  4, cta: 1 initialized @(2,0)
GPGPU-Sim uArch: core:  5, cta: 1 initialized @(2,0)
GPGPU-Sim uArch: core:  6, cta: 1 initialized @(2,0)
GPGPU-Sim uArch: core:  7, cta: 1 initialized @(2,0)
GPGPU-Sim uArch: core:  8, cta: 1 initialized @(2,0)
GPGPU-Sim uArch: core:  9, cta: 1 initialized @(2,0)
GPGPU-Sim uArch: core: 10, cta: 1 initialized @(2,0)
GPGPU-Sim uArch: core: 11, cta: 1 initialized @(2,0)
GPGPU-Sim uArch: core: 12, cta: 1 initialized @(2,0)
GPGPU-Sim uArch: core: 13, cta: 1 initialized @(2,0)
GPGPU-Sim uArch: core: 14, cta: 1 initialized @(2,0)
GPGPU-Sim uArch: core:  0, cta: 1 initialized @(2,0)
GPGPU-Sim uArch: core:  1, cta: 2 initialized @(3,0)
GPGPU-Sim uArch: core:  2, cta: 2 initialized @(3,0)
GPGPU-Sim uArch: core:  3, cta: 2 initialized @(3,0)
GPGPU-Sim uArch: core:  4, cta: 2 initialized @(3,0)
GPGPU-Sim uArch: core:  5, cta: 2 initialized @(3,0)
GPGPU-Sim uArch: core:  6, cta: 2 initialized @(3,0)
GPGPU-Sim uArch: core:  7, cta: 2 initialized @(3,0)
GPGPU-Sim uArch: core:  8, cta: 2 initialized @(3,0)
GPGPU-Sim uArch: core:  9, cta: 2 initialized @(3,0)
GPGPU-Sim uArch: core: 10, cta: 2 initialized @(3,0)
GPGPU-Sim uArch: core: 11, cta: 2 initialized @(3,0)
GPGPU-Sim uArch: core: 12, cta: 2 initialized @(3,0)
GPGPU-Sim uArch: core: 13, cta: 2 initialized @(3,0)
GPGPU-Sim uArch: core: 14, cta: 2 initialized @(3,0)
GPGPU-Sim uArch: core:  0, cta: 2 initialized @(3,0)
GPGPU-Sim uArch: core:  1, cta: 3 initialized @(4,0)
GPGPU-Sim uArch: core:  2, cta: 3 initialized @(4,0)
GPGPU-Sim uArch: core:  3, cta: 3 initialized @(4,0)
GPGPU-Sim uArch: core:  4, cta: 3 initialized @(4,0)
GPGPU-Sim uArch: core:  5, cta: 3 initialized @(4,0)
GPGPU-Sim uArch: core:  6, cta: 3 initialized @(4,0)
GPGPU-Sim uArch: core:  7, cta: 3 initialized @(4,0)
GPGPU-Sim uArch: core:  8, cta: 3 initialized @(4,0)
GPGPU-Sim uArch: core:  9, cta: 3 initialized @(4,0)
GPGPU-Sim uArch: core: 10, cta: 3 initialized @(4,0)
GPGPU-Sim uArch: core: 11, cta: 3 initialized @(4,0)
GPGPU-Sim uArch: core: 12, cta: 3 initialized @(4,0)
GPGPU-Sim uArch: core: 13, cta: 3 initialized @(4,0)
GPGPU-Sim uArch: core: 14, cta: 3 initialized @(4,0)
GPGPU-Sim uArch: core:  0, cta: 3 initialized @(4,0)
GPGPU-Sim uArch: core:  1, cta: 4 initialized @(5,0)
GPGPU-Sim uArch: core:  2, cta: 4 initialized @(5,0)
GPGPU-Sim uArch: core:  3, cta: 4 initialized @(5,0)
GPGPU-Sim uArch: core:  4, cta: 4 initialized @(5,0)
GPGPU-Sim uArch: core:  5, cta: 4 initialized @(5,0)
GPGPU-Sim uArch: core:  6, cta: 4 initialized @(5,0)
GPGPU-Sim uArch: core:  7, cta: 4 initialized @(5,0)
GPGPU-Sim uArch: core:  8, cta: 4 initialized @(5,0)
GPGPU-Sim uArch: core:  9, cta: 4 initialized @(5,0)
GPGPU-Sim uArch: core: 10, cta: 4 initialized @(5,0)
GPGPU-Sim uArch: core: 11, cta: 4 initialized @(5,0)
GPGPU-Sim uArch: core: 12, cta: 4 initialized @(5,0)
GPGPU-Sim uArch: core: 13, cta: 4 initialized @(5,0)
GPGPU-Sim uArch: core: 14, cta: 4 initialized @(5,0)
GPGPU-Sim uArch: core:  0, cta: 4 initialized @(5,0)
GPGPU-Sim uArch: core:  1, cta: 5 initialized @(6,0)
GPGPU-Sim uArch: core:  2, cta: 5 initialized @(6,0)
GPGPU-Sim uArch: core:  3, cta: 5 initialized @(6,0)
GPGPU-Sim uArch: core:  4, cta: 5 initialized @(6,0)
GPGPU-Sim uArch: core:  5, cta: 5 initialized @(6,0)
GPGPU-Sim uArch: core:  6, cta: 5 initialized @(6,0)
GPGPU-Sim uArch: core:  7, cta: 5 initialized @(6,0)
GPGPU-Sim uArch: core:  8, cta: 5 initialized @(6,0)
GPGPU-Sim uArch: core:  9, cta: 5 initialized @(6,0)
GPGPU-Sim uArch: core: 10, cta: 5 initialized @(6,0)
GPGPU-Sim uArch: core: 11, cta: 5 initialized @(6,0)
GPGPU-Sim uArch: core: 12, cta: 5 initialized @(6,0)
GPGPU-Sim uArch: core: 13, cta: 5 initialized @(6,0)
GPGPU-Sim uArch: core: 14, cta: 5 initialized @(6,0)
GPGPU-Sim uArch: core:  0, cta: 5 initialized @(6,0)
GPGPU-Sim PTX: 100000 instructions simulated : ctaid=(7,7,0) tid=(159,0,0)
GPGPU-Sim uArch: cycles simulated: 500  inst.: 147456 (ipc=294.9) sim_rate=73728 (inst/sec) elapsed = 0:0:00:02 / Tue Apr 16 16:48:48 2019
GPGPU-Sim PTX: 200000 instructions simulated : ctaid=(2,2,0) tid=(223,0,0)
GPGPU-Sim PTX: 300000 instructions simulated : ctaid=(3,5,0) tid=(255,0,0)
GPGPU-Sim uArch: cycles simulated: 1000  inst.: 299520 (ipc=299.5) sim_rate=99840 (inst/sec) elapsed = 0:0:00:03 / Tue Apr 16 16:48:49 2019
GPGPU-Sim PTX: 400000 instructions simulated : ctaid=(9,7,0) tid=(191,0,0)
GPGPU-Sim PTX: 500000 instructions simulated : ctaid=(9,4,0) tid=(191,0,0)
GPGPU-Sim PTX: 600000 instructions simulated : ctaid=(3,5,0) tid=(223,0,0)
GPGPU-Sim uArch: cycles simulated: 1500  inst.: 615616 (ipc=410.4) sim_rate=153904 (inst/sec) elapsed = 0:0:00:04 / Tue Apr 16 16:48:50 2019
GPGPU-Sim PTX: 700000 instructions simulated : ctaid=(1,4,0) tid=(159,0,0)
GPGPU-Sim PTX: 800000 instructions simulated : ctaid=(4,5,0) tid=(31,0,0)
GPGPU-Sim PTX: 900000 instructions simulated : ctaid=(4,5,0) tid=(255,0,0)
GPGPU-Sim uArch: cycles simulated: 2000  inst.: 849984 (ipc=425.0) sim_rate=169996 (inst/sec) elapsed = 0:0:00:05 / Tue Apr 16 16:48:51 2019
GPGPU-Sim uArch: cycles simulated: 3000  inst.: 853888 (ipc=284.6) sim_rate=142314 (inst/sec) elapsed = 0:0:00:06 / Tue Apr 16 16:48:52 2019
GPGPU-Sim uArch: cycles simulated: 5000  inst.: 880512 (ipc=176.1) sim_rate=125787 (inst/sec) elapsed = 0:0:00:07 / Tue Apr 16 16:48:53 2019
GPGPU-Sim uArch: cycles simulated: 6000  inst.: 889184 (ipc=148.2) sim_rate=111148 (inst/sec) elapsed = 0:0:00:08 / Tue Apr 16 16:48:54 2019
GPGPU-Sim uArch: cycles simulated: 7500  inst.: 905856 (ipc=120.8) sim_rate=100650 (inst/sec) elapsed = 0:0:00:09 / Tue Apr 16 16:48:55 2019
GPGPU-Sim uArch: cycles simulated: 9000  inst.: 921888 (ipc=102.4) sim_rate=92188 (inst/sec) elapsed = 0:0:00:10 / Tue Apr 16 16:48:56 2019
GPGPU-Sim PTX: 1000000 instructions simulated : ctaid=(3,0,0) tid=(31,0,0)
GPGPU-Sim uArch: cycles simulated: 10500  inst.: 940576 (ipc=89.6) sim_rate=85506 (inst/sec) elapsed = 0:0:00:11 / Tue Apr 16 16:48:57 2019
GPGPU-Sim uArch: cycles simulated: 11500  inst.: 955328 (ipc=83.1) sim_rate=79610 (inst/sec) elapsed = 0:0:00:12 / Tue Apr 16 16:48:58 2019
GPGPU-Sim uArch: cycles simulated: 13000  inst.: 972032 (ipc=74.8) sim_rate=74771 (inst/sec) elapsed = 0:0:00:13 / Tue Apr 16 16:48:59 2019
GPGPU-Sim uArch: cycles simulated: 14000  inst.: 983424 (ipc=70.2) sim_rate=70244 (inst/sec) elapsed = 0:0:00:14 / Tue Apr 16 16:49:00 2019
GPGPU-Sim uArch: cycles simulated: 15000  inst.: 1000000 (ipc=66.7) sim_rate=66666 (inst/sec) elapsed = 0:0:00:15 / Tue Apr 16 16:49:01 2019
GPGPU-Sim uArch: cycles simulated: 17000  inst.: 1024032 (ipc=60.2) sim_rate=64002 (inst/sec) elapsed = 0:0:00:16 / Tue Apr 16 16:49:02 2019
GPGPU-Sim PTX: 1100000 instructions simulated : ctaid=(1,0,0) tid=(223,0,0)
GPGPU-Sim uArch: cycles simulated: 18000  inst.: 1039776 (ipc=57.8) sim_rate=61163 (inst/sec) elapsed = 0:0:00:17 / Tue Apr 16 16:49:03 2019
GPGPU-Sim uArch: cycles simulated: 19500  inst.: 1056288 (ipc=54.2) sim_rate=58682 (inst/sec) elapsed = 0:0:00:18 / Tue Apr 16 16:49:04 2019
GPGPU-Sim uArch: cycles simulated: 21000  inst.: 1076224 (ipc=51.2) sim_rate=56643 (inst/sec) elapsed = 0:0:00:19 / Tue Apr 16 16:49:05 2019
GPGPU-Sim uArch: cycles simulated: 22500  inst.: 1097344 (ipc=48.8) sim_rate=54867 (inst/sec) elapsed = 0:0:00:20 / Tue Apr 16 16:49:06 2019
GPGPU-Sim uArch: cycles simulated: 24500  inst.: 1119872 (ipc=45.7) sim_rate=53327 (inst/sec) elapsed = 0:0:00:21 / Tue Apr 16 16:49:07 2019
GPGPU-Sim PTX: 1200000 instructions simulated : ctaid=(5,2,0) tid=(31,0,0)
GPGPU-Sim uArch: cycles simulated: 26000  inst.: 1141728 (ipc=43.9) sim_rate=51896 (inst/sec) elapsed = 0:0:00:22 / Tue Apr 16 16:49:08 2019
GPGPU-Sim uArch: cycles simulated: 27000  inst.: 1154624 (ipc=42.8) sim_rate=50201 (inst/sec) elapsed = 0:0:00:23 / Tue Apr 16 16:49:09 2019
GPGPU-Sim uArch: cycles simulated: 28500  inst.: 1172288 (ipc=41.1) sim_rate=48845 (inst/sec) elapsed = 0:0:00:24 / Tue Apr 16 16:49:10 2019
GPGPU-Sim uArch: cycles simulated: 29500  inst.: 1186208 (ipc=40.2) sim_rate=47448 (inst/sec) elapsed = 0:0:00:25 / Tue Apr 16 16:49:11 2019
GPGPU-Sim uArch: cycles simulated: 30500  inst.: 1204512 (ipc=39.5) sim_rate=46327 (inst/sec) elapsed = 0:0:00:26 / Tue Apr 16 16:49:12 2019
GPGPU-Sim uArch: cycles simulated: 31500  inst.: 1218688 (ipc=38.7) sim_rate=45136 (inst/sec) elapsed = 0:0:00:27 / Tue Apr 16 16:49:13 2019
GPGPU-Sim PTX: 1300000 instructions simulated : ctaid=(5,2,0) tid=(31,0,0)
GPGPU-Sim uArch: cycles simulated: 32500  inst.: 1234432 (ipc=38.0) sim_rate=44086 (inst/sec) elapsed = 0:0:00:28 / Tue Apr 16 16:49:14 2019
GPGPU-Sim uArch: cycles simulated: 33500  inst.: 1245664 (ipc=37.2) sim_rate=42953 (inst/sec) elapsed = 0:0:00:29 / Tue Apr 16 16:49:15 2019
GPGPU-Sim uArch: cycles simulated: 35000  inst.: 1269312 (ipc=36.3) sim_rate=42310 (inst/sec) elapsed = 0:0:00:30 / Tue Apr 16 16:49:16 2019
GPGPU-Sim uArch: cycles simulated: 36500  inst.: 1293120 (ipc=35.4) sim_rate=41713 (inst/sec) elapsed = 0:0:00:31 / Tue Apr 16 16:49:17 2019
GPGPU-Sim uArch: cycles simulated: 37500  inst.: 1303872 (ipc=34.8) sim_rate=40746 (inst/sec) elapsed = 0:0:00:32 / Tue Apr 16 16:49:18 2019
GPGPU-Sim PTX: 1400000 instructions simulated : ctaid=(7,1,0) tid=(95,0,0)
GPGPU-Sim uArch: cycles simulated: 39500  inst.: 1332160 (ipc=33.7) sim_rate=40368 (inst/sec) elapsed = 0:0:00:33 / Tue Apr 16 16:49:19 2019
GPGPU-Sim uArch: cycles simulated: 41000  inst.: 1351712 (ipc=33.0) sim_rate=39756 (inst/sec) elapsed = 0:0:00:34 / Tue Apr 16 16:49:20 2019
GPGPU-Sim uArch: cycles simulated: 42000  inst.: 1364640 (ipc=32.5) sim_rate=38989 (inst/sec) elapsed = 0:0:00:35 / Tue Apr 16 16:49:21 2019
GPGPU-Sim uArch: cycles simulated: 43000  inst.: 1379648 (ipc=32.1) sim_rate=38323 (inst/sec) elapsed = 0:0:00:36 / Tue Apr 16 16:49:22 2019
GPGPU-Sim uArch: cycles simulated: 44000  inst.: 1394784 (ipc=31.7) sim_rate=37696 (inst/sec) elapsed = 0:0:00:37 / Tue Apr 16 16:49:23 2019
GPGPU-Sim uArch: cycles simulated: 44500  inst.: 1400480 (ipc=31.5) sim_rate=36854 (inst/sec) elapsed = 0:0:00:38 / Tue Apr 16 16:49:24 2019
GPGPU-Sim uArch: cycles simulated: 45500  inst.: 1415168 (ipc=31.1) sim_rate=36286 (inst/sec) elapsed = 0:0:00:39 / Tue Apr 16 16:49:25 2019
GPGPU-Sim PTX: 1500000 instructions simulated : ctaid=(4,0,0) tid=(223,0,0)
GPGPU-Sim uArch: cycles simulated: 47000  inst.: 1436192 (ipc=30.6) sim_rate=35904 (inst/sec) elapsed = 0:0:00:40 / Tue Apr 16 16:49:26 2019
GPGPU-Sim uArch: cycles simulated: 48000  inst.: 1449536 (ipc=30.2) sim_rate=35354 (inst/sec) elapsed = 0:0:00:41 / Tue Apr 16 16:49:27 2019
GPGPU-Sim uArch: cycles simulated: 49500  inst.: 1469568 (ipc=29.7) sim_rate=34989 (inst/sec) elapsed = 0:0:00:42 / Tue Apr 16 16:49:28 2019
GPGPU-Sim uArch: cycles simulated: 51000  inst.: 1487744 (ipc=29.2) sim_rate=34598 (inst/sec) elapsed = 0:0:00:43 / Tue Apr 16 16:49:29 2019
GPGPU-Sim uArch: cycles simulated: 51500  inst.: 1502944 (ipc=29.2) sim_rate=34157 (inst/sec) elapsed = 0:0:00:44 / Tue Apr 16 16:49:30 2019
GPGPU-Sim uArch: cycles simulated: 52500  inst.: 1516288 (ipc=28.9) sim_rate=33695 (inst/sec) elapsed = 0:0:00:45 / Tue Apr 16 16:49:31 2019
GPGPU-Sim PTX: 1600000 instructions simulated : ctaid=(3,0,0) tid=(159,0,0)
GPGPU-Sim uArch: cycles simulated: 54000  inst.: 1535712 (ipc=28.4) sim_rate=33385 (inst/sec) elapsed = 0:0:00:46 / Tue Apr 16 16:49:32 2019
GPGPU-Sim uArch: cycles simulated: 55000  inst.: 1549664 (ipc=28.2) sim_rate=32971 (inst/sec) elapsed = 0:0:00:47 / Tue Apr 16 16:49:33 2019
GPGPU-Sim uArch: cycles simulated: 56000  inst.: 1562944 (ipc=27.9) sim_rate=32561 (inst/sec) elapsed = 0:0:00:48 / Tue Apr 16 16:49:34 2019
GPGPU-Sim uArch: cycles simulated: 57000  inst.: 1578272 (ipc=27.7) sim_rate=32209 (inst/sec) elapsed = 0:0:00:49 / Tue Apr 16 16:49:35 2019
GPGPU-Sim uArch: cycles simulated: 58000  inst.: 1592128 (ipc=27.5) sim_rate=31842 (inst/sec) elapsed = 0:0:00:50 / Tue Apr 16 16:49:36 2019
GPGPU-Sim uArch: cycles simulated: 59000  inst.: 1608704 (ipc=27.3) sim_rate=31543 (inst/sec) elapsed = 0:0:00:51 / Tue Apr 16 16:49:37 2019
GPGPU-Sim uArch: cycles simulated: 60000  inst.: 1625312 (ipc=27.1) sim_rate=31256 (inst/sec) elapsed = 0:0:00:52 / Tue Apr 16 16:49:38 2019
GPGPU-Sim PTX: 1700000 instructions simulated : ctaid=(4,0,0) tid=(223,0,0)
GPGPU-Sim uArch: cycles simulated: 61500  inst.: 1641312 (ipc=26.7) sim_rate=30968 (inst/sec) elapsed = 0:0:00:53 / Tue Apr 16 16:49:39 2019
GPGPU-Sim uArch: cycles simulated: 62500  inst.: 1665312 (ipc=26.6) sim_rate=30839 (inst/sec) elapsed = 0:0:00:54 / Tue Apr 16 16:49:40 2019
GPGPU-Sim uArch: cycles simulated: 64000  inst.: 1688064 (ipc=26.4) sim_rate=30692 (inst/sec) elapsed = 0:0:00:55 / Tue Apr 16 16:49:41 2019
GPGPU-Sim uArch: cycles simulated: 65000  inst.: 1698976 (ipc=26.1) sim_rate=30338 (inst/sec) elapsed = 0:0:00:56 / Tue Apr 16 16:49:42 2019
GPGPU-Sim uArch: cycles simulated: 66000  inst.: 1711808 (ipc=25.9) sim_rate=30031 (inst/sec) elapsed = 0:0:00:57 / Tue Apr 16 16:49:43 2019
GPGPU-Sim uArch: cycles simulated: 66500  inst.: 1720992 (ipc=25.9) sim_rate=29672 (inst/sec) elapsed = 0:0:00:58 / Tue Apr 16 16:49:44 2019
GPGPU-Sim PTX: 1800000 instructions simulated : ctaid=(0,1,0) tid=(31,0,0)
GPGPU-Sim uArch: cycles simulated: 67500  inst.: 1734304 (ipc=25.7) sim_rate=29394 (inst/sec) elapsed = 0:0:00:59 / Tue Apr 16 16:49:45 2019
GPGPU-Sim uArch: cycles simulated: 68500  inst.: 1748032 (ipc=25.5) sim_rate=29133 (inst/sec) elapsed = 0:0:01:00 / Tue Apr 16 16:49:46 2019
GPGPU-Sim uArch: cycles simulated: 70500  inst.: 1778464 (ipc=25.2) sim_rate=29155 (inst/sec) elapsed = 0:0:01:01 / Tue Apr 16 16:49:47 2019
GPGPU-Sim uArch: cycles simulated: 71500  inst.: 1792448 (ipc=25.1) sim_rate=28910 (inst/sec) elapsed = 0:0:01:02 / Tue Apr 16 16:49:48 2019
GPGPU-Sim uArch: cycles simulated: 73500  inst.: 1825344 (ipc=24.8) sim_rate=28973 (inst/sec) elapsed = 0:0:01:03 / Tue Apr 16 16:49:49 2019
GPGPU-Sim PTX: 1900000 instructions simulated : ctaid=(0,2,0) tid=(223,0,0)
GPGPU-Sim uArch: cycles simulated: 75000  inst.: 1843392 (ipc=24.6) sim_rate=28803 (inst/sec) elapsed = 0:0:01:04 / Tue Apr 16 16:49:50 2019
GPGPU-Sim uArch: cycles simulated: 76000  inst.: 1856992 (ipc=24.4) sim_rate=28569 (inst/sec) elapsed = 0:0:01:05 / Tue Apr 16 16:49:51 2019
GPGPU-Sim uArch: cycles simulated: 77500  inst.: 1878240 (ipc=24.2) sim_rate=28458 (inst/sec) elapsed = 0:0:01:06 / Tue Apr 16 16:49:52 2019
GPGPU-Sim uArch: cycles simulated: 78500  inst.: 1895584 (ipc=24.1) sim_rate=28292 (inst/sec) elapsed = 0:0:01:07 / Tue Apr 16 16:49:53 2019
GPGPU-Sim uArch: cycles simulated: 80500  inst.: 1923200 (ipc=23.9) sim_rate=28282 (inst/sec) elapsed = 0:0:01:08 / Tue Apr 16 16:49:54 2019
GPGPU-Sim PTX: 2000000 instructions simulated : ctaid=(2,0,0) tid=(31,0,0)
GPGPU-Sim uArch: cycles simulated: 82000  inst.: 1941792 (ipc=23.7) sim_rate=28141 (inst/sec) elapsed = 0:0:01:09 / Tue Apr 16 16:49:55 2019
GPGPU-Sim uArch: cycles simulated: 83500  inst.: 1964288 (ipc=23.5) sim_rate=28061 (inst/sec) elapsed = 0:0:01:10 / Tue Apr 16 16:49:56 2019
GPGPU-Sim uArch: cycles simulated: 84500  inst.: 1977344 (ipc=23.4) sim_rate=27849 (inst/sec) elapsed = 0:0:01:11 / Tue Apr 16 16:49:57 2019
GPGPU-Sim uArch: cycles simulated: 85500  inst.: 1991936 (ipc=23.3) sim_rate=27665 (inst/sec) elapsed = 0:0:01:12 / Tue Apr 16 16:49:58 2019
GPGPU-Sim uArch: cycles simulated: 86500  inst.: 2001920 (ipc=23.1) sim_rate=27423 (inst/sec) elapsed = 0:0:01:13 / Tue Apr 16 16:49:59 2019
GPGPU-Sim uArch: cycles simulated: 88000  inst.: 2025216 (ipc=23.0) sim_rate=27367 (inst/sec) elapsed = 0:0:01:14 / Tue Apr 16 16:50:00 2019
GPGPU-Sim PTX: 2100000 instructions simulated : ctaid=(6,2,0) tid=(95,0,0)
GPGPU-Sim uArch: cycles simulated: 89500  inst.: 2048064 (ipc=22.9) sim_rate=27307 (inst/sec) elapsed = 0:0:01:15 / Tue Apr 16 16:50:01 2019
GPGPU-Sim uArch: cycles simulated: 91500  inst.: 2075840 (ipc=22.7) sim_rate=27313 (inst/sec) elapsed = 0:0:01:16 / Tue Apr 16 16:50:02 2019
GPGPU-Sim uArch: cycles simulated: 93000  inst.: 2095648 (ipc=22.5) sim_rate=27216 (inst/sec) elapsed = 0:0:01:17 / Tue Apr 16 16:50:03 2019
GPGPU-Sim uArch: cycles simulated: 94500  inst.: 2118080 (ipc=22.4) sim_rate=27154 (inst/sec) elapsed = 0:0:01:18 / Tue Apr 16 16:50:04 2019
GPGPU-Sim PTX: 2200000 instructions simulated : ctaid=(9,0,0) tid=(31,0,0)
GPGPU-Sim uArch: cycles simulated: 95500  inst.: 2134528 (ipc=22.4) sim_rate=27019 (inst/sec) elapsed = 0:0:01:19 / Tue Apr 16 16:50:05 2019
GPGPU-Sim uArch: cycles simulated: 97500  inst.: 2160640 (ipc=22.2) sim_rate=27008 (inst/sec) elapsed = 0:0:01:20 / Tue Apr 16 16:50:06 2019
GPGPU-Sim uArch: cycles simulated: 99000  inst.: 2185088 (ipc=22.1) sim_rate=26976 (inst/sec) elapsed = 0:0:01:21 / Tue Apr 16 16:50:07 2019
GPGPU-Sim uArch: cycles simulated: 100500  inst.: 2203808 (ipc=21.9) sim_rate=26875 (inst/sec) elapsed = 0:0:01:22 / Tue Apr 16 16:50:08 2019
GPGPU-Sim uArch: cycles simulated: 101500  inst.: 2222080 (ipc=21.9) sim_rate=26772 (inst/sec) elapsed = 0:0:01:23 / Tue Apr 16 16:50:09 2019
GPGPU-Sim PTX: 2300000 instructions simulated : ctaid=(4,0,0) tid=(31,0,0)
GPGPU-Sim uArch: cycles simulated: 103000  inst.: 2246528 (ipc=21.8) sim_rate=26744 (inst/sec) elapsed = 0:0:01:24 / Tue Apr 16 16:50:10 2019
GPGPU-Sim uArch: cycles simulated: 104000  inst.: 2264064 (ipc=21.8) sim_rate=26636 (inst/sec) elapsed = 0:0:01:25 / Tue Apr 16 16:50:11 2019
GPGPU-Sim uArch: cycles simulated: 105000  inst.: 2277760 (ipc=21.7) sim_rate=26485 (inst/sec) elapsed = 0:0:01:26 / Tue Apr 16 16:50:12 2019
GPGPU-Sim uArch: cycles simulated: 106000  inst.: 2292832 (ipc=21.6) sim_rate=26354 (inst/sec) elapsed = 0:0:01:27 / Tue Apr 16 16:50:13 2019
GPGPU-Sim uArch: cycles simulated: 107000  inst.: 2307264 (ipc=21.6) sim_rate=26218 (inst/sec) elapsed = 0:0:01:28 / Tue Apr 16 16:50:14 2019
GPGPU-Sim uArch: cycles simulated: 108000  inst.: 2319552 (ipc=21.5) sim_rate=26062 (inst/sec) elapsed = 0:0:01:29 / Tue Apr 16 16:50:15 2019
GPGPU-Sim PTX: 2400000 instructions simulated : ctaid=(2,1,0) tid=(31,0,0)
GPGPU-Sim uArch: cycles simulated: 109000  inst.: 2336192 (ipc=21.4) sim_rate=25957 (inst/sec) elapsed = 0:0:01:30 / Tue Apr 16 16:50:16 2019
GPGPU-Sim uArch: cycles simulated: 110000  inst.: 2355072 (ipc=21.4) sim_rate=25879 (inst/sec) elapsed = 0:0:01:31 / Tue Apr 16 16:50:17 2019
GPGPU-Sim uArch: cycles simulated: 111000  inst.: 2368672 (ipc=21.3) sim_rate=25746 (inst/sec) elapsed = 0:0:01:32 / Tue Apr 16 16:50:18 2019
GPGPU-Sim uArch: cycles simulated: 111500  inst.: 2376032 (ipc=21.3) sim_rate=25548 (inst/sec) elapsed = 0:0:01:33 / Tue Apr 16 16:50:19 2019
GPGPU-Sim uArch: cycles simulated: 112500  inst.: 2391424 (ipc=21.3) sim_rate=25440 (inst/sec) elapsed = 0:0:01:34 / Tue Apr 16 16:50:20 2019
GPGPU-Sim uArch: cycles simulated: 113500  inst.: 2410624 (ipc=21.2) sim_rate=25374 (inst/sec) elapsed = 0:0:01:35 / Tue Apr 16 16:50:21 2019
GPGPU-Sim PTX: 2500000 instructions simulated : ctaid=(0,1,0) tid=(223,0,0)
GPGPU-Sim uArch: cycles simulated: 115000  inst.: 2429120 (ipc=21.1) sim_rate=25303 (inst/sec) elapsed = 0:0:01:36 / Tue Apr 16 16:50:22 2019
GPGPU-Sim uArch: cycles simulated: 115500  inst.: 2436832 (ipc=21.1) sim_rate=25121 (inst/sec) elapsed = 0:0:01:37 / Tue Apr 16 16:50:23 2019
GPGPU-Sim uArch: cycles simulated: 117500  inst.: 2467328 (ipc=21.0) sim_rate=25176 (inst/sec) elapsed = 0:0:01:38 / Tue Apr 16 16:50:24 2019
GPGPU-Sim uArch: cycles simulated: 119000  inst.: 2490432 (ipc=20.9) sim_rate=25155 (inst/sec) elapsed = 0:0:01:39 / Tue Apr 16 16:50:25 2019
GPGPU-Sim uArch: cycles simulated: 120500  inst.: 2513312 (ipc=20.9) sim_rate=25133 (inst/sec) elapsed = 0:0:01:40 / Tue Apr 16 16:50:26 2019
GPGPU-Sim PTX: 2600000 instructions simulated : ctaid=(3,0,0) tid=(159,0,0)
GPGPU-Sim uArch: cycles simulated: 122000  inst.: 2534144 (ipc=20.8) sim_rate=25090 (inst/sec) elapsed = 0:0:01:41 / Tue Apr 16 16:50:27 2019
GPGPU-Sim uArch: cycles simulated: 123500  inst.: 2556704 (ipc=20.7) sim_rate=25065 (inst/sec) elapsed = 0:0:01:42 / Tue Apr 16 16:50:28 2019
GPGPU-Sim uArch: cycles simulated: 124500  inst.: 2570208 (ipc=20.6) sim_rate=24953 (inst/sec) elapsed = 0:0:01:43 / Tue Apr 16 16:50:29 2019
GPGPU-Sim uArch: cycles simulated: 126000  inst.: 2593728 (ipc=20.6) sim_rate=24939 (inst/sec) elapsed = 0:0:01:44 / Tue Apr 16 16:50:30 2019
GPGPU-Sim uArch: cycles simulated: 127000  inst.: 2606912 (ipc=20.5) sim_rate=24827 (inst/sec) elapsed = 0:0:01:45 / Tue Apr 16 16:50:31 2019
GPGPU-Sim PTX: 2700000 instructions simulated : ctaid=(0,1,0) tid=(95,0,0)
GPGPU-Sim uArch: cycles simulated: 128500  inst.: 2629024 (ipc=20.5) sim_rate=24802 (inst/sec) elapsed = 0:0:01:46 / Tue Apr 16 16:50:32 2019
GPGPU-Sim uArch: cycles simulated: 129500  inst.: 2643072 (ipc=20.4) sim_rate=24701 (inst/sec) elapsed = 0:0:01:47 / Tue Apr 16 16:50:33 2019
GPGPU-Sim uArch: cycles simulated: 131500  inst.: 2671872 (ipc=20.3) sim_rate=24739 (inst/sec) elapsed = 0:0:01:48 / Tue Apr 16 16:50:34 2019
GPGPU-Sim uArch: cycles simulated: 132500  inst.: 2687008 (ipc=20.3) sim_rate=24651 (inst/sec) elapsed = 0:0:01:49 / Tue Apr 16 16:50:35 2019
GPGPU-Sim uArch: cycles simulated: 134000  inst.: 2709504 (ipc=20.2) sim_rate=24631 (inst/sec) elapsed = 0:0:01:50 / Tue Apr 16 16:50:36 2019
GPGPU-Sim uArch: cycles simulated: 135500  inst.: 2726720 (ipc=20.1) sim_rate=24565 (inst/sec) elapsed = 0:0:01:51 / Tue Apr 16 16:50:37 2019
GPGPU-Sim PTX: 2800000 instructions simulated : ctaid=(7,0,0) tid=(223,0,0)
GPGPU-Sim uArch: cycles simulated: 136500  inst.: 2743936 (ipc=20.1) sim_rate=24499 (inst/sec) elapsed = 0:0:01:52 / Tue Apr 16 16:50:38 2019
GPGPU-Sim uArch: cycles simulated: 137500  inst.: 2756896 (ipc=20.1) sim_rate=24397 (inst/sec) elapsed = 0:0:01:53 / Tue Apr 16 16:50:39 2019
GPGPU-Sim uArch: cycles simulated: 138500  inst.: 2775200 (ipc=20.0) sim_rate=24343 (inst/sec) elapsed = 0:0:01:54 / Tue Apr 16 16:50:40 2019
GPGPU-Sim uArch: cycles simulated: 139500  inst.: 2786976 (ipc=20.0) sim_rate=24234 (inst/sec) elapsed = 0:0:01:55 / Tue Apr 16 16:50:41 2019
GPGPU-Sim uArch: cycles simulated: 140500  inst.: 2800864 (ipc=19.9) sim_rate=24145 (inst/sec) elapsed = 0:0:01:56 / Tue Apr 16 16:50:42 2019
GPGPU-Sim uArch: cycles simulated: 141500  inst.: 2816256 (ipc=19.9) sim_rate=24070 (inst/sec) elapsed = 0:0:01:57 / Tue Apr 16 16:50:43 2019
GPGPU-Sim PTX: 2900000 instructions simulated : ctaid=(4,0,0) tid=(95,0,0)
GPGPU-Sim uArch: cycles simulated: 142500  inst.: 2828256 (ipc=19.8) sim_rate=23968 (inst/sec) elapsed = 0:0:01:58 / Tue Apr 16 16:50:44 2019
GPGPU-Sim uArch: cycles simulated: 143500  inst.: 2843520 (ipc=19.8) sim_rate=23895 (inst/sec) elapsed = 0:0:01:59 / Tue Apr 16 16:50:45 2019
GPGPU-Sim uArch: cycles simulated: 144000  inst.: 2851328 (ipc=19.8) sim_rate=23761 (inst/sec) elapsed = 0:0:02:00 / Tue Apr 16 16:50:46 2019
GPGPU-Sim uArch: cycles simulated: 145000  inst.: 2866624 (ipc=19.8) sim_rate=23691 (inst/sec) elapsed = 0:0:02:01 / Tue Apr 16 16:50:47 2019
GPGPU-Sim uArch: cycles simulated: 146500  inst.: 2891616 (ipc=19.7) sim_rate=23701 (inst/sec) elapsed = 0:0:02:02 / Tue Apr 16 16:50:48 2019
GPGPU-Sim uArch: cycles simulated: 147500  inst.: 2904896 (ipc=19.7) sim_rate=23617 (inst/sec) elapsed = 0:0:02:03 / Tue Apr 16 16:50:49 2019
GPGPU-Sim uArch: cycles simulated: 148500  inst.: 2922208 (ipc=19.7) sim_rate=23566 (inst/sec) elapsed = 0:0:02:04 / Tue Apr 16 16:50:50 2019
GPGPU-Sim PTX: 3000000 instructions simulated : ctaid=(3,0,0) tid=(31,0,0)
GPGPU-Sim uArch: cycles simulated: 150000  inst.: 2944192 (ipc=19.6) sim_rate=23553 (inst/sec) elapsed = 0:0:02:05 / Tue Apr 16 16:50:51 2019
GPGPU-Sim uArch: cycles simulated: 151000  inst.: 2956608 (ipc=19.6) sim_rate=23465 (inst/sec) elapsed = 0:0:02:06 / Tue Apr 16 16:50:52 2019
GPGPU-Sim uArch: cycles simulated: 152000  inst.: 2973824 (ipc=19.6) sim_rate=23415 (inst/sec) elapsed = 0:0:02:07 / Tue Apr 16 16:50:53 2019
GPGPU-Sim uArch: cycles simulated: 153500  inst.: 2992416 (ipc=19.5) sim_rate=23378 (inst/sec) elapsed = 0:0:02:08 / Tue Apr 16 16:50:54 2019
GPGPU-Sim uArch: cycles simulated: 154500  inst.: 3006080 (ipc=19.5) sim_rate=23302 (inst/sec) elapsed = 0:0:02:09 / Tue Apr 16 16:50:55 2019
GPGPU-Sim uArch: cycles simulated: 155500  inst.: 3018336 (ipc=19.4) sim_rate=23217 (inst/sec) elapsed = 0:0:02:10 / Tue Apr 16 16:50:56 2019
GPGPU-Sim PTX: 3100000 instructions simulated : ctaid=(9,3,0) tid=(159,0,0)
GPGPU-Sim uArch: cycles simulated: 156500  inst.: 3031456 (ipc=19.4) sim_rate=23140 (inst/sec) elapsed = 0:0:02:11 / Tue Apr 16 16:50:57 2019
GPGPU-Sim uArch: cycles simulated: 157500  inst.: 3048192 (ipc=19.4) sim_rate=23092 (inst/sec) elapsed = 0:0:02:12 / Tue Apr 16 16:50:58 2019
GPGPU-Sim uArch: cycles simulated: 159000  inst.: 3069024 (ipc=19.3) sim_rate=23075 (inst/sec) elapsed = 0:0:02:13 / Tue Apr 16 16:50:59 2019
GPGPU-Sim uArch: cycles simulated: 160500  inst.: 3089888 (ipc=19.3) sim_rate=23058 (inst/sec) elapsed = 0:0:02:14 / Tue Apr 16 16:51:00 2019
GPGPU-Sim uArch: cycles simulated: 162000  inst.: 3107904 (ipc=19.2) sim_rate=23021 (inst/sec) elapsed = 0:0:02:15 / Tue Apr 16 16:51:01 2019
GPGPU-Sim PTX: 3200000 instructions simulated : ctaid=(9,0,0) tid=(223,0,0)
GPGPU-Sim uArch: cycles simulated: 164000  inst.: 3136160 (ipc=19.1) sim_rate=23060 (inst/sec) elapsed = 0:0:02:16 / Tue Apr 16 16:51:02 2019
GPGPU-Sim uArch: cycles simulated: 165500  inst.: 3154848 (ipc=19.1) sim_rate=23028 (inst/sec) elapsed = 0:0:02:17 / Tue Apr 16 16:51:03 2019
GPGPU-Sim uArch: cycles simulated: 167000  inst.: 3181664 (ipc=19.1) sim_rate=23055 (inst/sec) elapsed = 0:0:02:18 / Tue Apr 16 16:51:04 2019
GPGPU-Sim uArch: cycles simulated: 169000  inst.: 3204480 (ipc=19.0) sim_rate=23053 (inst/sec) elapsed = 0:0:02:19 / Tue Apr 16 16:51:05 2019
GPGPU-Sim uArch: cycles simulated: 170000  inst.: 3220960 (ipc=18.9) sim_rate=23006 (inst/sec) elapsed = 0:0:02:20 / Tue Apr 16 16:51:06 2019
GPGPU-Sim PTX: 3300000 instructions simulated : ctaid=(8,1,0) tid=(95,0,0)
GPGPU-Sim uArch: cycles simulated: 171000  inst.: 3234432 (ipc=18.9) sim_rate=22939 (inst/sec) elapsed = 0:0:02:21 / Tue Apr 16 16:51:07 2019
GPGPU-Sim uArch: cycles simulated: 172500  inst.: 3257248 (ipc=18.9) sim_rate=22938 (inst/sec) elapsed = 0:0:02:22 / Tue Apr 16 16:51:08 2019
GPGPU-Sim uArch: cycles simulated: 173500  inst.: 3269216 (ipc=18.8) sim_rate=22861 (inst/sec) elapsed = 0:0:02:23 / Tue Apr 16 16:51:09 2019
GPGPU-Sim uArch: cycles simulated: 175000  inst.: 3293408 (ipc=18.8) sim_rate=22870 (inst/sec) elapsed = 0:0:02:24 / Tue Apr 16 16:51:10 2019
GPGPU-Sim uArch: cycles simulated: 176500  inst.: 3313248 (ipc=18.8) sim_rate=22849 (inst/sec) elapsed = 0:0:02:25 / Tue Apr 16 16:51:11 2019
GPGPU-Sim PTX: 3400000 instructions simulated : ctaid=(6,2,0) tid=(31,0,0)
GPGPU-Sim uArch: cycles simulated: 178000  inst.: 3337088 (ipc=18.7) sim_rate=22856 (inst/sec) elapsed = 0:0:02:26 / Tue Apr 16 16:51:12 2019
GPGPU-Sim uArch: cycles simulated: 179000  inst.: 3352864 (ipc=18.7) sim_rate=22808 (inst/sec) elapsed = 0:0:02:27 / Tue Apr 16 16:51:13 2019
GPGPU-Sim uArch: cycles simulated: 180000  inst.: 3368224 (ipc=18.7) sim_rate=22758 (inst/sec) elapsed = 0:0:02:28 / Tue Apr 16 16:51:14 2019
GPGPU-Sim uArch: cycles simulated: 181000  inst.: 3383360 (ipc=18.7) sim_rate=22707 (inst/sec) elapsed = 0:0:02:29 / Tue Apr 16 16:51:15 2019
GPGPU-Sim uArch: cycles simulated: 182500  inst.: 3405344 (ipc=18.7) sim_rate=22702 (inst/sec) elapsed = 0:0:02:30 / Tue Apr 16 16:51:16 2019
GPGPU-Sim uArch: cycles simulated: 184000  inst.: 3425024 (ipc=18.6) sim_rate=22682 (inst/sec) elapsed = 0:0:02:31 / Tue Apr 16 16:51:17 2019
GPGPU-Sim PTX: 3500000 instructions simulated : ctaid=(0,1,0) tid=(31,0,0)
GPGPU-Sim uArch: cycles simulated: 185500  inst.: 3445376 (ipc=18.6) sim_rate=22666 (inst/sec) elapsed = 0:0:02:32 / Tue Apr 16 16:51:18 2019
GPGPU-Sim uArch: cycles simulated: 187500  inst.: 3473504 (ipc=18.5) sim_rate=22702 (inst/sec) elapsed = 0:0:02:33 / Tue Apr 16 16:51:19 2019
GPGPU-Sim uArch: cycles simulated: 188500  inst.: 3487840 (ipc=18.5) sim_rate=22648 (inst/sec) elapsed = 0:0:02:34 / Tue Apr 16 16:51:20 2019
GPGPU-Sim uArch: cycles simulated: 189500  inst.: 3503840 (ipc=18.5) sim_rate=22605 (inst/sec) elapsed = 0:0:02:35 / Tue Apr 16 16:51:21 2019
GPGPU-Sim uArch: cycles simulated: 190500  inst.: 3517408 (ipc=18.5) sim_rate=22547 (inst/sec) elapsed = 0:0:02:36 / Tue Apr 16 16:51:22 2019
GPGPU-Sim PTX: 3600000 instructions simulated : ctaid=(8,0,0) tid=(95,0,0)
GPGPU-Sim uArch: cycles simulated: 192000  inst.: 3537376 (ipc=18.4) sim_rate=22531 (inst/sec) elapsed = 0:0:02:37 / Tue Apr 16 16:51:23 2019
GPGPU-Sim uArch: cycles simulated: 193000  inst.: 3553120 (ipc=18.4) sim_rate=22488 (inst/sec) elapsed = 0:0:02:38 / Tue Apr 16 16:51:24 2019
GPGPU-Sim uArch: cycles simulated: 195000  inst.: 3579104 (ipc=18.4) sim_rate=22510 (inst/sec) elapsed = 0:0:02:39 / Tue Apr 16 16:51:25 2019
GPGPU-Sim uArch: cycles simulated: 196500  inst.: 3602240 (ipc=18.3) sim_rate=22514 (inst/sec) elapsed = 0:0:02:40 / Tue Apr 16 16:51:26 2019
GPGPU-Sim uArch: cycles simulated: 198000  inst.: 3623232 (ipc=18.3) sim_rate=22504 (inst/sec) elapsed = 0:0:02:41 / Tue Apr 16 16:51:27 2019
GPGPU-Sim PTX: 3700000 instructions simulated : ctaid=(4,0,0) tid=(159,0,0)
GPGPU-Sim uArch: cycles simulated: 199000  inst.: 3638400 (ipc=18.3) sim_rate=22459 (inst/sec) elapsed = 0:0:02:42 / Tue Apr 16 16:51:28 2019
GPGPU-Sim uArch: cycles simulated: 200000  inst.: 3653920 (ipc=18.3) sim_rate=22416 (inst/sec) elapsed = 0:0:02:43 / Tue Apr 16 16:51:29 2019
GPGPU-Sim uArch: cycles simulated: 201500  inst.: 3675072 (ipc=18.2) sim_rate=22408 (inst/sec) elapsed = 0:0:02:44 / Tue Apr 16 16:51:30 2019
GPGPU-Sim uArch: cycles simulated: 203000  inst.: 3700224 (ipc=18.2) sim_rate=22425 (inst/sec) elapsed = 0:0:02:45 / Tue Apr 16 16:51:31 2019
GPGPU-Sim uArch: cycles simulated: 204500  inst.: 3720768 (ipc=18.2) sim_rate=22414 (inst/sec) elapsed = 0:0:02:46 / Tue Apr 16 16:51:32 2019
GPGPU-Sim PTX: 3800000 instructions simulated : ctaid=(10,0,0) tid=(159,0,0)
GPGPU-Sim uArch: cycles simulated: 206000  inst.: 3745024 (ipc=18.2) sim_rate=22425 (inst/sec) elapsed = 0:0:02:47 / Tue Apr 16 16:51:33 2019
GPGPU-Sim uArch: cycles simulated: 207500  inst.: 3768192 (ipc=18.2) sim_rate=22429 (inst/sec) elapsed = 0:0:02:48 / Tue Apr 16 16:51:34 2019
GPGPU-Sim uArch: cycles simulated: 208500  inst.: 3778656 (ipc=18.1) sim_rate=22358 (inst/sec) elapsed = 0:0:02:49 / Tue Apr 16 16:51:35 2019
GPGPU-Sim uArch: cycles simulated: 209500  inst.: 3794688 (ipc=18.1) sim_rate=22321 (inst/sec) elapsed = 0:0:02:50 / Tue Apr 16 16:51:36 2019
GPGPU-Sim uArch: cycles simulated: 210500  inst.: 3812992 (ipc=18.1) sim_rate=22298 (inst/sec) elapsed = 0:0:02:51 / Tue Apr 16 16:51:37 2019
GPGPU-Sim uArch: cycles simulated: 211500  inst.: 3825376 (ipc=18.1) sim_rate=22240 (inst/sec) elapsed = 0:0:02:52 / Tue Apr 16 16:51:38 2019
GPGPU-Sim PTX: 3900000 instructions simulated : ctaid=(1,1,0) tid=(127,0,0)
GPGPU-Sim uArch: cycles simulated: 212500  inst.: 3837472 (ipc=18.1) sim_rate=22181 (inst/sec) elapsed = 0:0:02:53 / Tue Apr 16 16:51:39 2019
GPGPU-Sim uArch: cycles simulated: 213500  inst.: 3852992 (ipc=18.0) sim_rate=22143 (inst/sec) elapsed = 0:0:02:54 / Tue Apr 16 16:51:40 2019
GPGPU-Sim uArch: cycles simulated: 214500  inst.: 3871072 (ipc=18.0) sim_rate=22120 (inst/sec) elapsed = 0:0:02:55 / Tue Apr 16 16:51:41 2019
GPGPU-Sim uArch: cycles simulated: 215500  inst.: 3884288 (ipc=18.0) sim_rate=22069 (inst/sec) elapsed = 0:0:02:56 / Tue Apr 16 16:51:42 2019
GPGPU-Sim uArch: cycles simulated: 217000  inst.: 3905248 (ipc=18.0) sim_rate=22063 (inst/sec) elapsed = 0:0:02:57 / Tue Apr 16 16:51:43 2019
GPGPU-Sim uArch: cycles simulated: 218000  inst.: 3921248 (ipc=18.0) sim_rate=22029 (inst/sec) elapsed = 0:0:02:58 / Tue Apr 16 16:51:44 2019
GPGPU-Sim PTX: 4000000 instructions simulated : ctaid=(3,0,0) tid=(31,0,0)
GPGPU-Sim uArch: cycles simulated: 218500  inst.: 3930816 (ipc=18.0) sim_rate=21959 (inst/sec) elapsed = 0:0:02:59 / Tue Apr 16 16:51:45 2019
GPGPU-Sim uArch: cycles simulated: 219500  inst.: 3944352 (ipc=18.0) sim_rate=21913 (inst/sec) elapsed = 0:0:03:00 / Tue Apr 16 16:51:46 2019
GPGPU-Sim uArch: cycles simulated: 220500  inst.: 3959552 (ipc=18.0) sim_rate=21875 (inst/sec) elapsed = 0:0:03:01 / Tue Apr 16 16:51:47 2019
GPGPU-Sim uArch: cycles simulated: 222000  inst.: 3977696 (ipc=17.9) sim_rate=21855 (inst/sec) elapsed = 0:0:03:02 / Tue Apr 16 16:51:48 2019
GPGPU-Sim uArch: cycles simulated: 223000  inst.: 3988832 (ipc=17.9) sim_rate=21796 (inst/sec) elapsed = 0:0:03:03 / Tue Apr 16 16:51:49 2019
GPGPU-Sim uArch: cycles simulated: 224500  inst.: 4015520 (ipc=17.9) sim_rate=21823 (inst/sec) elapsed = 0:0:03:04 / Tue Apr 16 16:51:50 2019
GPGPU-Sim PTX: 4100000 instructions simulated : ctaid=(4,2,0) tid=(31,0,0)
GPGPU-Sim uArch: cycles simulated: 226000  inst.: 4037312 (ipc=17.9) sim_rate=21823 (inst/sec) elapsed = 0:0:03:05 / Tue Apr 16 16:51:51 2019
GPGPU-Sim uArch: cycles simulated: 227000  inst.: 4048480 (ipc=17.8) sim_rate=21766 (inst/sec) elapsed = 0:0:03:06 / Tue Apr 16 16:51:52 2019
GPGPU-Sim uArch: cycles simulated: 228000  inst.: 4061600 (ipc=17.8) sim_rate=21719 (inst/sec) elapsed = 0:0:03:07 / Tue Apr 16 16:51:53 2019
GPGPU-Sim uArch: cycles simulated: 229500  inst.: 4085728 (ipc=17.8) sim_rate=21732 (inst/sec) elapsed = 0:0:03:08 / Tue Apr 16 16:51:54 2019
GPGPU-Sim uArch: cycles simulated: 230500  inst.: 4095264 (ipc=17.8) sim_rate=21668 (inst/sec) elapsed = 0:0:03:09 / Tue Apr 16 16:51:55 2019
GPGPU-Sim uArch: cycles simulated: 232500  inst.: 4125952 (ipc=17.7) sim_rate=21715 (inst/sec) elapsed = 0:0:03:10 / Tue Apr 16 16:51:56 2019
GPGPU-Sim PTX: 4200000 instructions simulated : ctaid=(4,2,0) tid=(31,0,0)
GPGPU-Sim uArch: cycles simulated: 233500  inst.: 4138528 (ipc=17.7) sim_rate=21667 (inst/sec) elapsed = 0:0:03:11 / Tue Apr 16 16:51:57 2019
GPGPU-Sim uArch: cycles simulated: 235000  inst.: 4164416 (ipc=17.7) sim_rate=21689 (inst/sec) elapsed = 0:0:03:12 / Tue Apr 16 16:51:58 2019
GPGPU-Sim uArch: cycles simulated: 236500  inst.: 4184224 (ipc=17.7) sim_rate=21679 (inst/sec) elapsed = 0:0:03:13 / Tue Apr 16 16:51:59 2019
GPGPU-Sim uArch: cycles simulated: 238500  inst.: 4220384 (ipc=17.7) sim_rate=21754 (inst/sec) elapsed = 0:0:03:14 / Tue Apr 16 16:52:00 2019
GPGPU-Sim PTX: 4300000 instructions simulated : ctaid=(2,1,0) tid=(31,0,0)
GPGPU-Sim uArch: cycles simulated: 240000  inst.: 4240992 (ipc=17.7) sim_rate=21748 (inst/sec) elapsed = 0:0:03:15 / Tue Apr 16 16:52:01 2019
GPGPU-Sim uArch: cycles simulated: 241500  inst.: 4267168 (ipc=17.7) sim_rate=21771 (inst/sec) elapsed = 0:0:03:16 / Tue Apr 16 16:52:02 2019
GPGPU-Sim uArch: cycles simulated: 243500  inst.: 4298208 (ipc=17.7) sim_rate=21818 (inst/sec) elapsed = 0:0:03:17 / Tue Apr 16 16:52:03 2019
GPGPU-Sim PTX: 4400000 instructions simulated : ctaid=(6,1,0) tid=(31,0,0)
GPGPU-Sim uArch: cycles simulated: 245500  inst.: 4328320 (ipc=17.6) sim_rate=21860 (inst/sec) elapsed = 0:0:03:18 / Tue Apr 16 16:52:04 2019
GPGPU-Sim uArch: cycles simulated: 247000  inst.: 4353376 (ipc=17.6) sim_rate=21876 (inst/sec) elapsed = 0:0:03:19 / Tue Apr 16 16:52:05 2019
GPGPU-Sim uArch: cycles simulated: 248500  inst.: 4374560 (ipc=17.6) sim_rate=21872 (inst/sec) elapsed = 0:0:03:20 / Tue Apr 16 16:52:06 2019
GPGPU-Sim uArch: cycles simulated: 250500  inst.: 4405184 (ipc=17.6) sim_rate=21916 (inst/sec) elapsed = 0:0:03:21 / Tue Apr 16 16:52:07 2019
GPGPU-Sim uArch: cycles simulated: 252000  inst.: 4425216 (ipc=17.6) sim_rate=21907 (inst/sec) elapsed = 0:0:03:22 / Tue Apr 16 16:52:08 2019
GPGPU-Sim PTX: 4500000 instructions simulated : ctaid=(2,1,0) tid=(31,0,0)
GPGPU-Sim uArch: cycles simulated: 253500  inst.: 4454432 (ipc=17.6) sim_rate=21943 (inst/sec) elapsed = 0:0:03:23 / Tue Apr 16 16:52:09 2019
GPGPU-Sim uArch: cycles simulated: 255000  inst.: 4475520 (ipc=17.6) sim_rate=21938 (inst/sec) elapsed = 0:0:03:24 / Tue Apr 16 16:52:10 2019
GPGPU-Sim uArch: cycles simulated: 257000  inst.: 4504352 (ipc=17.5) sim_rate=21972 (inst/sec) elapsed = 0:0:03:25 / Tue Apr 16 16:52:11 2019
GPGPU-Sim PTX: 4600000 instructions simulated : ctaid=(4,0,0) tid=(127,0,0)
GPGPU-Sim uArch: cycles simulated: 258500  inst.: 4530400 (ipc=17.5) sim_rate=21992 (inst/sec) elapsed = 0:0:03:26 / Tue Apr 16 16:52:12 2019
GPGPU-Sim uArch: cycles simulated: 259500  inst.: 4544480 (ipc=17.5) sim_rate=21954 (inst/sec) elapsed = 0:0:03:27 / Tue Apr 16 16:52:13 2019
GPGPU-Sim uArch: cycles simulated: 261000  inst.: 4566688 (ipc=17.5) sim_rate=21955 (inst/sec) elapsed = 0:0:03:28 / Tue Apr 16 16:52:14 2019
GPGPU-Sim uArch: cycles simulated: 262000  inst.: 4585568 (ipc=17.5) sim_rate=21940 (inst/sec) elapsed = 0:0:03:29 / Tue Apr 16 16:52:15 2019
GPGPU-Sim uArch: cycles simulated: 263500  inst.: 4611040 (ipc=17.5) sim_rate=21957 (inst/sec) elapsed = 0:0:03:30 / Tue Apr 16 16:52:16 2019
GPGPU-Sim PTX: 4700000 instructions simulated : ctaid=(6,0,0) tid=(127,0,0)
GPGPU-Sim uArch: cycles simulated: 265000  inst.: 4631744 (ipc=17.5) sim_rate=21951 (inst/sec) elapsed = 0:0:03:31 / Tue Apr 16 16:52:17 2019
GPGPU-Sim uArch: cycles simulated: 266500  inst.: 4656128 (ipc=17.5) sim_rate=21962 (inst/sec) elapsed = 0:0:03:32 / Tue Apr 16 16:52:18 2019
GPGPU-Sim uArch: cycles simulated: 267500  inst.: 4668512 (ipc=17.5) sim_rate=21917 (inst/sec) elapsed = 0:0:03:33 / Tue Apr 16 16:52:19 2019
GPGPU-Sim uArch: cycles simulated: 268500  inst.: 4685824 (ipc=17.5) sim_rate=21896 (inst/sec) elapsed = 0:0:03:34 / Tue Apr 16 16:52:20 2019
GPGPU-Sim uArch: cycles simulated: 270500  inst.: 4707872 (ipc=17.4) sim_rate=21897 (inst/sec) elapsed = 0:0:03:35 / Tue Apr 16 16:52:21 2019
GPGPU-Sim PTX: 4800000 instructions simulated : ctaid=(2,0,0) tid=(95,0,0)
GPGPU-Sim uArch: cycles simulated: 272500  inst.: 4739680 (ipc=17.4) sim_rate=21942 (inst/sec) elapsed = 0:0:03:36 / Tue Apr 16 16:52:22 2019
GPGPU-Sim uArch: cycles simulated: 273000  inst.: 4747648 (ipc=17.4) sim_rate=21878 (inst/sec) elapsed = 0:0:03:37 / Tue Apr 16 16:52:23 2019
GPGPU-Sim uArch: cycles simulated: 274000  inst.: 4760896 (ipc=17.4) sim_rate=21838 (inst/sec) elapsed = 0:0:03:38 / Tue Apr 16 16:52:24 2019
GPGPU-Sim uArch: cycles simulated: 275500  inst.: 4785568 (ipc=17.4) sim_rate=21851 (inst/sec) elapsed = 0:0:03:39 / Tue Apr 16 16:52:25 2019
GPGPU-Sim uArch: cycles simulated: 277500  inst.: 4813728 (ipc=17.3) sim_rate=21880 (inst/sec) elapsed = 0:0:03:40 / Tue Apr 16 16:52:26 2019
GPGPU-Sim PTX: 4900000 instructions simulated : ctaid=(6,0,0) tid=(31,0,0)
GPGPU-Sim uArch: cycles simulated: 279000  inst.: 4840288 (ipc=17.3) sim_rate=21901 (inst/sec) elapsed = 0:0:03:41 / Tue Apr 16 16:52:27 2019
GPGPU-Sim uArch: cycles simulated: 281000  inst.: 4871840 (ipc=17.3) sim_rate=21945 (inst/sec) elapsed = 0:0:03:42 / Tue Apr 16 16:52:28 2019
GPGPU-Sim uArch: cycles simulated: 283000  inst.: 4899968 (ipc=17.3) sim_rate=21972 (inst/sec) elapsed = 0:0:03:43 / Tue Apr 16 16:52:29 2019
GPGPU-Sim PTX: 5000000 instructions simulated : ctaid=(7,1,0) tid=(95,0,0)
GPGPU-Sim uArch: cycles simulated: 285000  inst.: 4937056 (ipc=17.3) sim_rate=22040 (inst/sec) elapsed = 0:0:03:44 / Tue Apr 16 16:52:30 2019
GPGPU-Sim uArch: cycles simulated: 286500  inst.: 4955936 (ipc=17.3) sim_rate=22026 (inst/sec) elapsed = 0:0:03:45 / Tue Apr 16 16:52:31 2019
GPGPU-Sim uArch: cycles simulated: 288500  inst.: 4987456 (ipc=17.3) sim_rate=22068 (inst/sec) elapsed = 0:0:03:46 / Tue Apr 16 16:52:32 2019
GPGPU-Sim uArch: cycles simulated: 290500  inst.: 5018048 (ipc=17.3) sim_rate=22105 (inst/sec) elapsed = 0:0:03:47 / Tue Apr 16 16:52:33 2019
GPGPU-Sim PTX: 5100000 instructions simulated : ctaid=(3,0,0) tid=(223,0,0)
GPGPU-Sim uArch: cycles simulated: 292000  inst.: 5037600 (ipc=17.3) sim_rate=22094 (inst/sec) elapsed = 0:0:03:48 / Tue Apr 16 16:52:34 2019
GPGPU-Sim uArch: cycles simulated: 293000  inst.: 5052736 (ipc=17.2) sim_rate=22064 (inst/sec) elapsed = 0:0:03:49 / Tue Apr 16 16:52:35 2019
GPGPU-Sim uArch: cycles simulated: 294500  inst.: 5073536 (ipc=17.2) sim_rate=22058 (inst/sec) elapsed = 0:0:03:50 / Tue Apr 16 16:52:36 2019
GPGPU-Sim uArch: cycles simulated: 296000  inst.: 5090912 (ipc=17.2) sim_rate=22038 (inst/sec) elapsed = 0:0:03:51 / Tue Apr 16 16:52:37 2019
GPGPU-Sim uArch: cycles simulated: 297500  inst.: 5117120 (ipc=17.2) sim_rate=22056 (inst/sec) elapsed = 0:0:03:52 / Tue Apr 16 16:52:38 2019
GPGPU-Sim PTX: 5200000 instructions simulated : ctaid=(4,1,0) tid=(31,0,0)
GPGPU-Sim uArch: cycles simulated: 299500  inst.: 5151328 (ipc=17.2) sim_rate=22108 (inst/sec) elapsed = 0:0:03:53 / Tue Apr 16 16:52:39 2019
GPGPU-Sim uArch: cycles simulated: 300500  inst.: 5168224 (ipc=17.2) sim_rate=22086 (inst/sec) elapsed = 0:0:03:54 / Tue Apr 16 16:52:40 2019
GPGPU-Sim uArch: cycles simulated: 302500  inst.: 5203072 (ipc=17.2) sim_rate=22140 (inst/sec) elapsed = 0:0:03:55 / Tue Apr 16 16:52:41 2019
GPGPU-Sim uArch: cycles simulated: 303500  inst.: 5215072 (ipc=17.2) sim_rate=22097 (inst/sec) elapsed = 0:0:03:56 / Tue Apr 16 16:52:42 2019
GPGPU-Sim PTX: 5300000 instructions simulated : ctaid=(5,0,0) tid=(159,0,0)
GPGPU-Sim uArch: cycles simulated: 305500  inst.: 5246240 (ipc=17.2) sim_rate=22136 (inst/sec) elapsed = 0:0:03:57 / Tue Apr 16 16:52:43 2019
GPGPU-Sim uArch: cycles simulated: 307000  inst.: 5270176 (ipc=17.2) sim_rate=22143 (inst/sec) elapsed = 0:0:03:58 / Tue Apr 16 16:52:44 2019
GPGPU-Sim uArch: cycles simulated: 309000  inst.: 5300416 (ipc=17.2) sim_rate=22177 (inst/sec) elapsed = 0:0:03:59 / Tue Apr 16 16:52:45 2019
GPGPU-Sim PTX: 5400000 instructions simulated : ctaid=(0,1,0) tid=(31,0,0)
GPGPU-Sim uArch: cycles simulated: 311000  inst.: 5326464 (ipc=17.1) sim_rate=22193 (inst/sec) elapsed = 0:0:04:00 / Tue Apr 16 16:52:46 2019
GPGPU-Sim uArch: cycles simulated: 313000  inst.: 5358976 (ipc=17.1) sim_rate=22236 (inst/sec) elapsed = 0:0:04:01 / Tue Apr 16 16:52:47 2019
GPGPU-Sim uArch: cycles simulated: 315000  inst.: 5390336 (ipc=17.1) sim_rate=22274 (inst/sec) elapsed = 0:0:04:02 / Tue Apr 16 16:52:48 2019
GPGPU-Sim uArch: cycles simulated: 316500  inst.: 5408928 (ipc=17.1) sim_rate=22258 (inst/sec) elapsed = 0:0:04:03 / Tue Apr 16 16:52:49 2019
GPGPU-Sim PTX: 5500000 instructions simulated : ctaid=(0,1,0) tid=(63,0,0)
GPGPU-Sim uArch: cycles simulated: 318000  inst.: 5433600 (ipc=17.1) sim_rate=22268 (inst/sec) elapsed = 0:0:04:04 / Tue Apr 16 16:52:50 2019
GPGPU-Sim uArch: cycles simulated: 319500  inst.: 5455264 (ipc=17.1) sim_rate=22266 (inst/sec) elapsed = 0:0:04:05 / Tue Apr 16 16:52:51 2019
GPGPU-Sim uArch: cycles simulated: 321500  inst.: 5482784 (ipc=17.1) sim_rate=22287 (inst/sec) elapsed = 0:0:04:06 / Tue Apr 16 16:52:52 2019
GPGPU-Sim uArch: cycles simulated: 323500  inst.: 5507552 (ipc=17.0) sim_rate=22297 (inst/sec) elapsed = 0:0:04:07 / Tue Apr 16 16:52:53 2019
GPGPU-Sim PTX: 5600000 instructions simulated : ctaid=(2,0,0) tid=(31,0,0)
GPGPU-Sim uArch: cycles simulated: 325500  inst.: 5540288 (ipc=17.0) sim_rate=22339 (inst/sec) elapsed = 0:0:04:08 / Tue Apr 16 16:52:54 2019
GPGPU-Sim uArch: cycles simulated: 327000  inst.: 5560608 (ipc=17.0) sim_rate=22331 (inst/sec) elapsed = 0:0:04:09 / Tue Apr 16 16:52:55 2019
GPGPU-Sim uArch: cycles simulated: 329000  inst.: 5586464 (ipc=17.0) sim_rate=22345 (inst/sec) elapsed = 0:0:04:10 / Tue Apr 16 16:52:56 2019
GPGPU-Sim uArch: cycles simulated: 331000  inst.: 5617376 (ipc=17.0) sim_rate=22379 (inst/sec) elapsed = 0:0:04:11 / Tue Apr 16 16:52:57 2019
GPGPU-Sim PTX: 5700000 instructions simulated : ctaid=(1,0,0) tid=(95,0,0)
GPGPU-Sim uArch: cycles simulated: 333000  inst.: 5642080 (ipc=16.9) sim_rate=22389 (inst/sec) elapsed = 0:0:04:12 / Tue Apr 16 16:52:58 2019
GPGPU-Sim uArch: cycles simulated: 335000  inst.: 5673184 (ipc=16.9) sim_rate=22423 (inst/sec) elapsed = 0:0:04:13 / Tue Apr 16 16:52:59 2019
GPGPU-Sim uArch: cycles simulated: 337000  inst.: 5703328 (ipc=16.9) sim_rate=22454 (inst/sec) elapsed = 0:0:04:14 / Tue Apr 16 16:53:00 2019
GPGPU-Sim PTX: 5800000 instructions simulated : ctaid=(7,0,0) tid=(95,0,0)
GPGPU-Sim uArch: cycles simulated: 339000  inst.: 5732576 (ipc=16.9) sim_rate=22480 (inst/sec) elapsed = 0:0:04:15 / Tue Apr 16 16:53:01 2019
GPGPU-Sim uArch: cycles simulated: 341000  inst.: 5757536 (ipc=16.9) sim_rate=22490 (inst/sec) elapsed = 0:0:04:16 / Tue Apr 16 16:53:02 2019
GPGPU-Sim uArch: cycles simulated: 343000  inst.: 5790592 (ipc=16.9) sim_rate=22531 (inst/sec) elapsed = 0:0:04:17 / Tue Apr 16 16:53:03 2019
GPGPU-Sim uArch: cycles simulated: 344500  inst.: 5809632 (ipc=16.9) sim_rate=22517 (inst/sec) elapsed = 0:0:04:18 / Tue Apr 16 16:53:04 2019
GPGPU-Sim PTX: 5900000 instructions simulated : ctaid=(1,0,0) tid=(159,0,0)
GPGPU-Sim uArch: cycles simulated: 346500  inst.: 5834912 (ipc=16.8) sim_rate=22528 (inst/sec) elapsed = 0:0:04:19 / Tue Apr 16 16:53:05 2019
GPGPU-Sim uArch: cycles simulated: 348500  inst.: 5860736 (ipc=16.8) sim_rate=22541 (inst/sec) elapsed = 0:0:04:20 / Tue Apr 16 16:53:06 2019
GPGPU-Sim uArch: cycles simulated: 350000  inst.: 5881824 (ipc=16.8) sim_rate=22535 (inst/sec) elapsed = 0:0:04:21 / Tue Apr 16 16:53:07 2019
GPGPU-Sim uArch: cycles simulated: 351500  inst.: 5901984 (ipc=16.8) sim_rate=22526 (inst/sec) elapsed = 0:0:04:22 / Tue Apr 16 16:53:08 2019
GPGPU-Sim uArch: cycles simulated: 352500  inst.: 5917696 (ipc=16.8) sim_rate=22500 (inst/sec) elapsed = 0:0:04:23 / Tue Apr 16 16:53:09 2019
GPGPU-Sim PTX: 6000000 instructions simulated : ctaid=(0,1,0) tid=(159,0,0)
GPGPU-Sim uArch: cycles simulated: 354000  inst.: 5937824 (ipc=16.8) sim_rate=22491 (inst/sec) elapsed = 0:0:04:24 / Tue Apr 16 16:53:10 2019
GPGPU-Sim uArch: cycles simulated: 356000  inst.: 5969056 (ipc=16.8) sim_rate=22524 (inst/sec) elapsed = 0:0:04:25 / Tue Apr 16 16:53:11 2019
GPGPU-Sim uArch: cycles simulated: 358000  inst.: 5995552 (ipc=16.7) sim_rate=22539 (inst/sec) elapsed = 0:0:04:26 / Tue Apr 16 16:53:12 2019
GPGPU-Sim uArch: cycles simulated: 359000  inst.: 6008064 (ipc=16.7) sim_rate=22502 (inst/sec) elapsed = 0:0:04:27 / Tue Apr 16 16:53:13 2019
GPGPU-Sim uArch: cycles simulated: 359500  inst.: 6016256 (ipc=16.7) sim_rate=22448 (inst/sec) elapsed = 0:0:04:28 / Tue Apr 16 16:53:14 2019
GPGPU-Sim PTX: 6100000 instructions simulated : ctaid=(0,2,0) tid=(159,0,0)
GPGPU-Sim uArch: cycles simulated: 361000  inst.: 6035008 (ipc=16.7) sim_rate=22434 (inst/sec) elapsed = 0:0:04:29 / Tue Apr 16 16:53:15 2019
GPGPU-Sim uArch: cycles simulated: 362500  inst.: 6056608 (ipc=16.7) sim_rate=22431 (inst/sec) elapsed = 0:0:04:30 / Tue Apr 16 16:53:16 2019
GPGPU-Sim uArch: cycles simulated: 364500  inst.: 6079648 (ipc=16.7) sim_rate=22434 (inst/sec) elapsed = 0:0:04:31 / Tue Apr 16 16:53:17 2019
GPGPU-Sim uArch: cycles simulated: 366000  inst.: 6101216 (ipc=16.7) sim_rate=22430 (inst/sec) elapsed = 0:0:04:32 / Tue Apr 16 16:53:18 2019
GPGPU-Sim uArch: cycles simulated: 367000  inst.: 6113568 (ipc=16.7) sim_rate=22394 (inst/sec) elapsed = 0:0:04:33 / Tue Apr 16 16:53:19 2019
GPGPU-Sim PTX: 6200000 instructions simulated : ctaid=(0,0,0) tid=(31,0,0)
GPGPU-Sim uArch: cycles simulated: 368000  inst.: 6128192 (ipc=16.7) sim_rate=22365 (inst/sec) elapsed = 0:0:04:34 / Tue Apr 16 16:53:20 2019
GPGPU-Sim uArch: cycles simulated: 369500  inst.: 6148640 (ipc=16.6) sim_rate=22358 (inst/sec) elapsed = 0:0:04:35 / Tue Apr 16 16:53:21 2019
GPGPU-Sim uArch: cycles simulated: 371500  inst.: 6177888 (ipc=16.6) sim_rate=22383 (inst/sec) elapsed = 0:0:04:36 / Tue Apr 16 16:53:22 2019
GPGPU-Sim uArch: cycles simulated: 373500  inst.: 6201984 (ipc=16.6) sim_rate=22389 (inst/sec) elapsed = 0:0:04:37 / Tue Apr 16 16:53:23 2019
GPGPU-Sim PTX: 6300000 instructions simulated : ctaid=(2,1,0) tid=(95,0,0)
GPGPU-Sim uArch: cycles simulated: 375500  inst.: 6228672 (ipc=16.6) sim_rate=22405 (inst/sec) elapsed = 0:0:04:38 / Tue Apr 16 16:53:24 2019
GPGPU-Sim uArch: cycles simulated: 377500  inst.: 6257568 (ipc=16.6) sim_rate=22428 (inst/sec) elapsed = 0:0:04:39 / Tue Apr 16 16:53:25 2019
GPGPU-Sim uArch: cycles simulated: 379000  inst.: 6277760 (ipc=16.6) sim_rate=22420 (inst/sec) elapsed = 0:0:04:40 / Tue Apr 16 16:53:26 2019
GPGPU-Sim uArch: cycles simulated: 380500  inst.: 6298464 (ipc=16.6) sim_rate=22414 (inst/sec) elapsed = 0:0:04:41 / Tue Apr 16 16:53:27 2019
GPGPU-Sim PTX: 6400000 instructions simulated : ctaid=(0,1,0) tid=(95,0,0)
GPGPU-Sim uArch: cycles simulated: 382000  inst.: 6322304 (ipc=16.6) sim_rate=22419 (inst/sec) elapsed = 0:0:04:42 / Tue Apr 16 16:53:28 2019
GPGPU-Sim uArch: cycles simulated: 382500  inst.: 6327584 (ipc=16.5) sim_rate=22358 (inst/sec) elapsed = 0:0:04:43 / Tue Apr 16 16:53:29 2019
GPGPU-Sim uArch: cycles simulated: 384000  inst.: 6349472 (ipc=16.5) sim_rate=22357 (inst/sec) elapsed = 0:0:04:44 / Tue Apr 16 16:53:30 2019
GPGPU-Sim uArch: cycles simulated: 385000  inst.: 6361376 (ipc=16.5) sim_rate=22320 (inst/sec) elapsed = 0:0:04:45 / Tue Apr 16 16:53:31 2019
GPGPU-Sim uArch: cycles simulated: 385500  inst.: 6367136 (ipc=16.5) sim_rate=22262 (inst/sec) elapsed = 0:0:04:46 / Tue Apr 16 16:53:32 2019
GPGPU-Sim uArch: cycles simulated: 387500  inst.: 6393280 (ipc=16.5) sim_rate=22276 (inst/sec) elapsed = 0:0:04:47 / Tue Apr 16 16:53:33 2019
GPGPU-Sim uArch: cycles simulated: 389000  inst.: 6416384 (ipc=16.5) sim_rate=22279 (inst/sec) elapsed = 0:0:04:48 / Tue Apr 16 16:53:34 2019
GPGPU-Sim PTX: 6500000 instructions simulated : ctaid=(10,0,0) tid=(31,0,0)
GPGPU-Sim uArch: cycles simulated: 390000  inst.: 6429760 (ipc=16.5) sim_rate=22248 (inst/sec) elapsed = 0:0:04:49 / Tue Apr 16 16:53:35 2019
GPGPU-Sim uArch: cycles simulated: 392000  inst.: 6453344 (ipc=16.5) sim_rate=22252 (inst/sec) elapsed = 0:0:04:50 / Tue Apr 16 16:53:36 2019
GPGPU-Sim uArch: cycles simulated: 393500  inst.: 6478240 (ipc=16.5) sim_rate=22261 (inst/sec) elapsed = 0:0:04:51 / Tue Apr 16 16:53:37 2019
GPGPU-Sim uArch: cycles simulated: 394000  inst.: 6487456 (ipc=16.5) sim_rate=22217 (inst/sec) elapsed = 0:0:04:52 / Tue Apr 16 16:53:38 2019
GPGPU-Sim uArch: cycles simulated: 395500  inst.: 6510336 (ipc=16.5) sim_rate=22219 (inst/sec) elapsed = 0:0:04:53 / Tue Apr 16 16:53:39 2019
GPGPU-Sim PTX: 6600000 instructions simulated : ctaid=(10,1,0) tid=(31,0,0)
GPGPU-Sim uArch: cycles simulated: 396500  inst.: 6521888 (ipc=16.4) sim_rate=22183 (inst/sec) elapsed = 0:0:04:54 / Tue Apr 16 16:53:40 2019
GPGPU-Sim uArch: cycles simulated: 397500  inst.: 6535680 (ipc=16.4) sim_rate=22154 (inst/sec) elapsed = 0:0:04:55 / Tue Apr 16 16:53:41 2019
GPGPU-Sim uArch: cycles simulated: 399500  inst.: 6564320 (ipc=16.4) sim_rate=22176 (inst/sec) elapsed = 0:0:04:56 / Tue Apr 16 16:53:42 2019
GPGPU-Sim uArch: cycles simulated: 401000  inst.: 6584736 (ipc=16.4) sim_rate=22170 (inst/sec) elapsed = 0:0:04:57 / Tue Apr 16 16:53:43 2019
GPGPU-Sim uArch: cycles simulated: 402500  inst.: 6606784 (ipc=16.4) sim_rate=22170 (inst/sec) elapsed = 0:0:04:58 / Tue Apr 16 16:53:44 2019
GPGPU-Sim PTX: 6700000 instructions simulated : ctaid=(1,0,0) tid=(95,0,0)
GPGPU-Sim uArch: cycles simulated: 404000  inst.: 6628416 (ipc=16.4) sim_rate=22168 (inst/sec) elapsed = 0:0:04:59 / Tue Apr 16 16:53:45 2019
GPGPU-Sim uArch: cycles simulated: 405000  inst.: 6645568 (ipc=16.4) sim_rate=22151 (inst/sec) elapsed = 0:0:05:00 / Tue Apr 16 16:53:46 2019
GPGPU-Sim uArch: cycles simulated: 407000  inst.: 6669696 (ipc=16.4) sim_rate=22158 (inst/sec) elapsed = 0:0:05:01 / Tue Apr 16 16:53:47 2019
GPGPU-Sim uArch: cycles simulated: 409000  inst.: 6697888 (ipc=16.4) sim_rate=22178 (inst/sec) elapsed = 0:0:05:02 / Tue Apr 16 16:53:48 2019
GPGPU-Sim uArch: cycles simulated: 410500  inst.: 6720000 (ipc=16.4) sim_rate=22178 (inst/sec) elapsed = 0:0:05:03 / Tue Apr 16 16:53:49 2019
GPGPU-Sim PTX: 6800000 instructions simulated : ctaid=(3,0,0) tid=(31,0,0)
GPGPU-Sim uArch: cycles simulated: 412000  inst.: 6742656 (ipc=16.4) sim_rate=22179 (inst/sec) elapsed = 0:0:05:04 / Tue Apr 16 16:53:50 2019
GPGPU-Sim uArch: cycles simulated: 414000  inst.: 6768160 (ipc=16.3) sim_rate=22190 (inst/sec) elapsed = 0:0:05:05 / Tue Apr 16 16:53:51 2019
GPGPU-Sim uArch: cycles simulated: 415500  inst.: 6789984 (ipc=16.3) sim_rate=22189 (inst/sec) elapsed = 0:0:05:06 / Tue Apr 16 16:53:52 2019
GPGPU-Sim uArch: cycles simulated: 417000  inst.: 6810048 (ipc=16.3) sim_rate=22182 (inst/sec) elapsed = 0:0:05:07 / Tue Apr 16 16:53:53 2019
GPGPU-Sim PTX: 6900000 instructions simulated : ctaid=(8,0,0) tid=(31,0,0)
GPGPU-Sim uArch: cycles simulated: 418000  inst.: 6828768 (ipc=16.3) sim_rate=22171 (inst/sec) elapsed = 0:0:05:08 / Tue Apr 16 16:53:54 2019
GPGPU-Sim uArch: cycles simulated: 419500  inst.: 6845600 (ipc=16.3) sim_rate=22154 (inst/sec) elapsed = 0:0:05:09 / Tue Apr 16 16:53:55 2019
GPGPU-Sim uArch: cycles simulated: 421500  inst.: 6875136 (ipc=16.3) sim_rate=22177 (inst/sec) elapsed = 0:0:05:10 / Tue Apr 16 16:53:56 2019
GPGPU-Sim uArch: cycles simulated: 423000  inst.: 6893088 (ipc=16.3) sim_rate=22164 (inst/sec) elapsed = 0:0:05:11 / Tue Apr 16 16:53:57 2019
GPGPU-Sim PTX: 7000000 instructions simulated : ctaid=(4,1,0) tid=(95,0,0)
GPGPU-Sim uArch: cycles simulated: 425000  inst.: 6922272 (ipc=16.3) sim_rate=22186 (inst/sec) elapsed = 0:0:05:12 / Tue Apr 16 16:53:58 2019
GPGPU-Sim uArch: cycles simulated: 427000  inst.: 6950880 (ipc=16.3) sim_rate=22207 (inst/sec) elapsed = 0:0:05:13 / Tue Apr 16 16:53:59 2019
GPGPU-Sim uArch: cycles simulated: 429000  inst.: 6978720 (ipc=16.3) sim_rate=22225 (inst/sec) elapsed = 0:0:05:14 / Tue Apr 16 16:54:00 2019
GPGPU-Sim uArch: cycles simulated: 431000  inst.: 7008480 (ipc=16.3) sim_rate=22249 (inst/sec) elapsed = 0:0:05:15 / Tue Apr 16 16:54:01 2019
GPGPU-Sim PTX: 7100000 instructions simulated : ctaid=(5,0,0) tid=(95,0,0)
GPGPU-Sim uArch: cycles simulated: 433000  inst.: 7037632 (ipc=16.3) sim_rate=22270 (inst/sec) elapsed = 0:0:05:16 / Tue Apr 16 16:54:02 2019
GPGPU-Sim uArch: cycles simulated: 435000  inst.: 7071072 (ipc=16.3) sim_rate=22306 (inst/sec) elapsed = 0:0:05:17 / Tue Apr 16 16:54:03 2019
GPGPU-Sim uArch: cycles simulated: 436000  inst.: 7084864 (ipc=16.2) sim_rate=22279 (inst/sec) elapsed = 0:0:05:18 / Tue Apr 16 16:54:04 2019
[...]
dram[5]:  1.219428  1.217219  1.222144  1.222217  1.215695  1.216047  1.227662  1.222726  1.220993  1.220057  1.220322  1.214991  1.221687  1.220349  1.217105  1.215199 
average row locality = 2432635/2003088 = 1.214442
number of total memory accesses made:
dram[0]:         0         0         0         0         0         0         0         0         0         0         0         0         0         0         0         0 
dram[1]:         0         0         0         0         0         0         0         0         0         0         0         0         0         0         0         0 
dram[2]:         0         0         0         0         0         0         0         0         0         0         0         0         0         0         0         0 
dram[3]:         0         0         0         0         0         0         0         0         0         0         0         0         0         0         0         0 
dram[4]:         0         0         0         0         0         0         0         0         0         0         0         0         0         0         0         0 
dram[5]:         0         0         0         0         0         0         0         0         0         0         0         0         0         0         0         0 
total accesses: 0
min_bank_accesses = 0!
min_chip_accesses = 0!
number of total read accesses:
dram[0]:     24721     24519     25541     25208     24898     24794     25997     25832     25434     25313     24859     24711     24130     24020     24821     24644 
dram[1]:     24879     24992     25507     25490     24778     25044     26103     26060     25345     25615     25016     24972     24111     24323     24731     24943 
dram[2]:     25167     25290     25958     26205     25505     25677     26576     26838     25835     26027     25410     25605     24859     24814     25366     25832 
dram[3]:     24823     24996     25599     25858     24942     25280     25904     26286     25382     25694     24949     25173     24089     24336     25002     25256 
dram[4]:     25090     25244     25874     26216     25301     25694     26265     26731     25691     25963     25217     25612     24629     24922     25140     25752 
dram[5]:     25294     24861     26171     25339     25391     25205     26504     25901     26056     25731     25401     24736     24564     24300     25410     24754 
total reads: 2430843
bank skew: 26838/24020 = 1.12
chip skew: 410964/399442 = 1.03
number of total write accesses:
dram[0]:        64        64         0         0         0         0         0         0         0         0         0         0        20        20        64        64 
dram[1]:        64        64         0         0         0         0         0         0         0         0         0         0        20        20        64        64 
dram[2]:        64        64         0         0         0         0         0         0         0         0         0         0        20        24        64        64 
dram[3]:        64        64         0         0         0         0         0         0         0         0         0         0        20        24        64        64 
dram[4]:        64        64         0         0         0         0         0         0         0         0         0         0        20        24        64        64 
dram[5]:        64        64         0         0         0         0         0         0         0         0         0         0        20        24        64        64 
total reads: 1792
min_bank_accesses = 0!
chip skew: 300/296 = 1.01
average mf latency per bank:
dram[0]:       4599      4758      5492      5887      4614      4743      4480      4616      4545      4688      4569      4719      4689      4827      4587      4740
dram[1]:       4686      4758      5754      5954      4747      4779      4557      4659      4665      4726      4647      4750      4813      4860      4712      4765
dram[2]:       4434      4592      5463      5709      4430      4574      4298      4439      4405      4517      4402      4567      4502      4685      4420      4520
dram[3]:       4684      4730      5814      5867      4708      4717      4591      4610      4673      4654      4662      4716      4833      4858      4668      4695
dram[4]:       4669      4486      5813      5291      4677      4453      4566      4344      4626      4440      4642      4447      4756      4538      4670      4409
dram[5]:       4598      4104      5641      4019      4617      4076      4476      4022      4518      4034      4554      4109      4694      4184      4562      4117
maximum mf latency per bank:
dram[0]:        891       955       925       935       943       917       919       902       911       958       899       927       893       909       876       900
dram[1]:        921       923       966      1008       926       900       939       962       930       978       937       908       893       948       937       929
dram[2]:        966       966      1006       954      1000      1012       956       936       951       945       992       972       943       946       939      1011
dram[3]:        977      1006      1020       952      1002       999       968      1023       966       985      1005       989       988       940       997       934
dram[4]:        968       991       937       960       985       984       953       941       984       944       954      1020       983       966       962       920
dram[5]:        924       794       972       766       898       815       956       767       936       783       863       847      1040       789       890       785

Number of Memory Banks Accessed per Memory Operation per Warp (from 0):
0	0	0	0	0	0	0	0	0	0	0	0	0	0	0	0	0	0	0	0	0	0	0	0	0	0	0	0	0	0	0	0	0	0	0	0	0	0	0	0	0	0	0	0	0	0	0	0	0	0	0	0	0	0	0	0	0	0	0	0	0	0	0	0	0	0	0	0	0	0	0	0	0	0	0	0	0	0	0	0	0	0	0	0	0	0	0	0	0	0	0	0	0	0	0	0	
Average # of Memory Banks Accessed per Memory Operation per Warp=-nan

position of mrq chosen
0	0	0	0	0	0	0	0	0	0	0	0	0	0	0	0	

average position of mrq chosen = -nan
Memory Partition 0: 
Cache L2_bank_000:
MSHR contents

Cache L2_bank_001:
MSHR contents

In Dram Latency Queue (total = 0): 
DRAM[0]: 16 bks, busW=4 BL=8 CL=12, tRRD=2 tCCD=6, tRCD=12 tRAS=28 tRP=12 tRC=40
n_cmd=43439180 n_nop=41980884 n_act=329418 n_pre=329402 n_req=399738 n_rd=798884 n_write=592 bw_util=0.03681
n_activity=13588291 dram_eff=0.1177
bk0: 49442a 42813684i bk1: 49038a 42817594i bk2: 51082a 42791836i bk3: 50416a 42800436i bk4: 49796a 42806642i bk5: 49588a 42811086i bk6: 51994a 42782276i bk7: 51664a 42784235i bk8: 50868a 42794140i bk9: 50626a 42795732i bk10: 49718a 42806375i bk11: 49422a 42813341i bk12: 48260a 42826713i bk13: 48040a 42832286i bk14: 49642a 42805657i bk15: 49288a 42812220i 
dram_util_bins: 0 0 0 0 0 0 0 0 0 0
dram_eff_bins: 0 0 0 0 0 0 0 0 0 0
mrqq: max=16 avg=0.00622763
Memory Partition 1: 
Cache L2_bank_002:
MSHR contents

Cache L2_bank_003:
MSHR contents
MSHR: tag=0x81e4af80, atomic=0 1 entries : 0x7ff151b03a80 :  mf: uid=476554084, sid13:w15, part=1, addr=0x81e4af80, load , size=128, unknown  status = IN_PARTITION_DRAM (32908467), 

In Dram Latency Queue (total = 0): 
DRAM[1]: 16 bks, busW=4 BL=8 CL=12, tRRD=2 tCCD=6, tRCD=12 tRAS=28 tRP=12 tRC=40
n_cmd=43439180 n_nop=41971986 n_act=331400 n_pre=331384 n_req=402205 n_rd=803818 n_write=592 bw_util=0.03704
n_activity=13675214 dram_eff=0.1176
bk0: 49758a 42807111i bk1: 49984a 42807188i bk2: 51014a 42793349i bk3: 50980a 42795503i bk4: 49556a 42807932i bk5: 50088a 42807969i bk6: 52206a 42779547i bk7: 52120a 42783735i bk8: 50690a 42795077i bk9: 51230a 42792285i bk10: 50032a 42804210i bk11: 49944a 42805936i bk12: 48222a 42825935i bk13: 48646a 42825895i bk14: 49462a 42809452i bk15: 49886a 42806988i 
dram_util_bins: 0 0 0 0 0 0 0 0 0 0
dram_eff_bins: 0 0 0 0 0 0 0 0 0 0
mrqq: max=16 avg=0.00555487
Memory Partition 2: 
Cache L2_bank_004:
MSHR contents

Cache L2_bank_005:
MSHR contents

In Dram Latency Queue (total = 0): 
DRAM[2]: 16 bks, busW=4 BL=8 CL=12, tRRD=2 tCCD=6, tRCD=12 tRAS=28 tRP=12 tRC=40
n_cmd=43439180 n_nop=41938536 n_act=339066 n_pre=339050 n_req=411264 n_rd=821928 n_write=600 bw_util=0.03787
n_activity=13780479 dram_eff=0.1194
bk0: 50334a 42796095i bk1: 50580a 42794443i bk2: 51916a 42779375i bk3: 52410a 42770622i bk4: 51010a 42787808i bk5: 51354a 42786325i bk6: 53152a 42764137i bk7: 53676a 42758540i bk8: 51670a 42781131i bk9: 52054a 42778362i bk10: 50820a 42791953i bk11: 51210a 42788810i bk12: 49718a 42803741i bk13: 49628a 42808317i bk14: 50732a 42791642i bk15: 51664a 42780027i 
dram_util_bins: 0 0 0 0 0 0 0 0 0 0
dram_eff_bins: 0 0 0 0 0 0 0 0 0 0
mrqq: max=16 avg=0.00758797
Memory Partition 3: 
Cache L2_bank_006:
MSHR contents

Cache L2_bank_007:
MSHR contents

In Dram Latency Queue (total = 0): 
DRAM[3]: 16 bks, busW=4 BL=8 CL=12, tRRD=2 tCCD=6, tRCD=12 tRAS=28 tRP=12 tRC=40
n_cmd=43439180 n_nop=41965810 n_act=332824 n_pre=332808 n_req=403869 n_rd=807138 n_write=600 bw_util=0.03719
n_activity=13665166 dram_eff=0.1182
bk0: 49646a 42808330i bk1: 49992a 42803885i bk2: 51198a 42789528i bk3: 51716a 42782399i bk4: 49884a 42801475i bk5: 50560a 42800343i bk6: 51808a 42784342i bk7: 52572a 42776682i bk8: 50764a 42795602i bk9: 51388a 42789753i bk10: 49898a 42806299i bk11: 50346a 42800829i bk12: 48178a 42826971i bk13: 48672a 42820960i bk14: 50004a 42801347i bk15: 50512a 42797624i 
dram_util_bins: 0 0 0 0 0 0 0 0 0 0
dram_eff_bins: 0 0 0 0 0 0 0 0 0 0
mrqq: max=16 avg=0.00610709
Memory Partition 4: 
Cache L2_bank_008:
MSHR contents

Cache L2_bank_009:
MSHR contents

In Dram Latency Queue (total = 0): 
DRAM[4]: 16 bks, busW=4 BL=8 CL=12, tRRD=2 tCCD=6, tRCD=12 tRAS=28 tRP=12 tRC=40
n_cmd=43439180 n_nop=41944782 n_act=337566 n_pre=337550 n_req=409641 n_rd=818682 n_write=600 bw_util=0.03772
n_activity=13748453 dram_eff=0.1192
bk0: 50180a 42798844i bk1: 50488a 42797093i bk2: 51748a 42783978i bk3: 52432a 42772056i bk4: 50602a 42794806i bk5: 51388a 42786344i bk6: 52530a 42773932i bk7: 53462a 42762908i bk8: 51382a 42784239i bk9: 51926a 42778965i bk10: 50434a 42796301i bk11: 51224a 42790252i bk12: 49258a 42812900i bk13: 49844a 42806092i bk14: 50280a 42795517i bk15: 51504a 42783616i 
dram_util_bins: 0 0 0 0 0 0 0 0 0 0
dram_eff_bins: 0 0 0 0 0 0 0 0 0 0
mrqq: max=16 avg=0.00686562
Memory Partition 5: 
Cache L2_bank_010:
MSHR contents

Cache L2_bank_011:
MSHR contents

In Dram Latency Queue (total = 0): 
DRAM[5]: 16 bks, busW=4 BL=8 CL=12, tRRD=2 tCCD=6, tRCD=12 tRAS=28 tRP=12 tRC=40
n_cmd=43439180 n_nop=41961730 n_act=332815 n_pre=332799 n_req=405918 n_rd=811236 n_write=600 bw_util=0.03738
n_activity=13704286 dram_eff=0.1185
bk0: 50588a 42799967i bk1: 49722a 42812571i bk2: 52342a 42781099i bk3: 50678a 42803553i bk4: 50782a 42796834i bk5: 50410a 42805851i bk6: 53008a 42773914i bk7: 51802a 42788580i bk8: 52112a 42780671i bk9: 51462a 42791165i bk10: 50802a 42796271i bk11: 49472a 42814223i bk12: 49128a 42818335i bk13: 48600a 42828421i bk14: 50820a 42795098i bk15: 49508a 42812930i 
dram_util_bins: 0 0 0 0 0 0 0 0 0 0
dram_eff_bins: 0 0 0 0 0 0 0 0 0 0
mrqq: max=16 avg=0.00538221

========= L2 cache stats =========
L2_cache_bank[0]: Access = 3290199, Miss = 200401, Miss_rate = 0.061, Pending_hits = 19, Reservation_fails = 730
L2_cache_bank[1]: Access = 3304362, Miss = 199041, Miss_rate = 0.060, Pending_hits = 1, Reservation_fails = 860
L2_cache_bank[2]: Access = 3300901, Miss = 200470, Miss_rate = 0.061, Pending_hits = 21, Reservation_fails = 220
L2_cache_bank[3]: Access = 3307441, Miss = 201439, Miss_rate = 0.061, Pending_hits = 1, Reservation_fails = 0
L2_cache_bank[4]: Access = 3304154, Miss = 204676, Miss_rate = 0.062, Pending_hits = 12, Reservation_fails = 694
L2_cache_bank[5]: Access = 3309426, Miss = 206288, Miss_rate = 0.062, Pending_hits = 1, Reservation_fails = 839
L2_cache_bank[6]: Access = 3304519, Miss = 200690, Miss_rate = 0.061, Pending_hits = 2, Reservation_fails = 48
L2_cache_bank[7]: Access = 3305093, Miss = 202879, Miss_rate = 0.061, Pending_hits = 0, Reservation_fails = 36
L2_cache_bank[8]: Access = 3307312, Miss = 203207, Miss_rate = 0.061, Pending_hits = 3, Reservation_fails = 115
L2_cache_bank[9]: Access = 3283331, Miss = 206134, Miss_rate = 0.063, Pending_hits = 1, Reservation_fails = 146
L2_cache_bank[10]: Access = 3305257, Miss = 204791, Miss_rate = 0.062, Pending_hits = 1, Reservation_fails = 0
L2_cache_bank[11]: Access = 3203070, Miss = 200827, Miss_rate = 0.063, Pending_hits = 0, Reservation_fails = 36
L2_total_cache_accesses = 39525065
L2_total_cache_misses = 2430843
L2_total_cache_miss_rate = 0.0615
L2_total_cache_pending_hits = 62
L2_total_cache_reservation_fails = 3724
L2_total_cache_breakdown:
	L2_cache_stats_breakdown[GLOBAL_ACC_R][HIT] = 37094088
	L2_cache_stats_breakdown[GLOBAL_ACC_R][HIT_RESERVED] = 50
	L2_cache_stats_breakdown[GLOBAL_ACC_R][MISS] = 2429045
	L2_cache_stats_breakdown[GLOBAL_ACC_R][RESERVATION_FAIL] = 3310
	L2_cache_stats_breakdown[CONST_ACC_R][HIT] = 11
	L2_cache_stats_breakdown[CONST_ACC_R][HIT_RESERVED] = 3
	L2_cache_stats_breakdown[CONST_ACC_R][MISS] = 1
	L2_cache_stats_breakdown[CONST_ACC_R][RESERVATION_FAIL] = 95
	L2_cache_stats_breakdown[GLOBAL_ACC_W][MISS] = 1792
	L2_cache_stats_breakdown[INST_ACC_R][HIT] = 61
	L2_cache_stats_breakdown[INST_ACC_R][HIT_RESERVED] = 9
	L2_cache_stats_breakdown[INST_ACC_R][MISS] = 5
	L2_cache_stats_breakdown[INST_ACC_R][RESERVATION_FAIL] = 319
L2_cache_data_port_util = 0.376
L2_cache_fill_port_util = 0.025

icnt_total_pkts_mem_to_simt=197618127
icnt_total_pkts_simt_to_mem=39532233
LD_mem_lat_dist  0 0 0 0 0 0 0 0 0 0 0 0 0 0 0 0 0 0 0 0 0 0 0 0 0 0 0
ST_mem_lat_dist  0 0 0 0 0 0 0 0 0 0 0 0 0 0 0 0 0 0 0 0 0 0 0 0 0 0 0
----------------------------Interconnect-DETAILS--------------------------------
Class 0:
Packet latency average = 27.6435
	minimum = 6
	maximum = 444
Network latency average = 21.5269
	minimum = 6
	maximum = 444
Slowest packet = 59808596
Flit latency average = 16.727
	minimum = 6
	maximum = 444
Slowest flit = 179425002
Fragmentation average = 2.90522e-05
	minimum = 0
	maximum = 267
Injected packet rate average = 0.0889818
	minimum = 0.0749596 (at node 9)
	maximum = 0.100604 (at node 20)
Accepted packet rate average = 0.0889818
	minimum = 0.0749596 (at node 9)
	maximum = 0.100604 (at node 20)
Injected flit rate average = 0.266945
	minimum = 0.0749732 (at node 9)
	maximum = 0.502999 (at node 20)
Accepted flit rate average= 0.266945
	minimum = 0.0973688 (at node 26)
	maximum = 0.42948 (at node 4)
Injected packet length average = 3
Accepted packet length average = 3
Total in-flight flits = 0 (0 measured)
====== Overall Traffic Statistics ======
====== Traffic class 0 ======
Packet latency average = 27.6636 (2 samples)
	minimum = 6 (2 samples)
	maximum = 466 (2 samples)
Network latency average = 21.534 (2 samples)
	minimum = 6 (2 samples)
	maximum = 466 (2 samples)
Flit latency average = 16.7303 (2 samples)
	minimum = 6 (2 samples)
	maximum = 466 (2 samples)
Fragmentation average = 3.21687e-05 (2 samples)
	minimum = 0 (2 samples)
	maximum = 295.5 (2 samples)
Injected packet rate average = 0.0889675 (2 samples)
	minimum = 0.0749707 (2 samples)
	maximum = 0.100565 (2 samples)
Accepted packet rate average = 0.0889675 (2 samples)
	minimum = 0.0749707 (2 samples)
	maximum = 0.100565 (2 samples)
Injected flit rate average = 0.266902 (2 samples)
	minimum = 0.0749843 (2 samples)
	maximum = 0.502804 (2 samples)
Accepted flit rate average = 0.266902 (2 samples)
	minimum = 0.0973512 (2 samples)
	maximum = 0.429295 (2 samples)
Injected packet size average = 3 (2 samples)
Accepted packet size average = 3 (2 samples)
Hops average = 1 (2 samples)
----------------------------END-of-Interconnect-DETAILS-------------------------


gpgpu_simulation_time = 0 days, 3 hrs, 55 min, 54 sec (14154 sec)
gpgpu_simulation_rate = 34046 (inst/sec)
gpgpu_simulation_rate = 2325 (cycle/sec)
GPGPU-Sim: synchronize waiting for inactive GPU simulation
GPGPU-Sim API: Stream Manager State
GPGPU-Sim: detected inactive GPU simulation thread
iterated 2 times

================= Centroid Coordinates =================
0: 1.23 613.61 527.61 0.00 0.00 0.01 0.00 0.00 0.00 0.00 0.03 0.01 0.00 0.00 0.00 8.15 11.06 0.00 0.00 0.00 0.00 0.99 0.01 0.22 139.44 193.37 0.83 0.02 0.06 0.01 0.00 0.00 0.00 0.00 1.00 1.23 613.61 527.61 0.00 0.00 0.01 0.00 0.00 0.00 0.00 0.03 0.01 0.00 0.00 0.00 8.15 11.06 0.00 0.00 0.00 0.00 0.99 0.01 0.22 139.44 193.37 0.83 0.02 0.06 0.01 0.00 0.00 0.00 0.00 1.23 613.61 527.61 0.00 0.00 0.01 0.00 0.00 0.00 0.00 0.03 0.01 0.00 0.00 0.00 8.15 11.06 0.00 0.00 0.00 0.00 0.99 0.01 0.22 139.44 193.37 0.83 0.02 0.06 0.01 0.00 0.00 0.00 0.00 1.00 1.23 613.61 527.61 0.00 0.00 0.01 0.00 0.00 0.00 0.00 0.03 0.01 0.00 0.00 0.00 8.15 11.06 0.00 0.00 0.00 0.00 0.99 0.01 0.22 139.44 193.37 0.83 0.02 0.06 0.01 0.00 0.00 0.00 0.00

1: 1.45 15177.44 214.67 0.00 0.00 0.01 0.00 0.00 0.00 0.00 0.00 0.02 0.01 0.02 0.00 4.59 5.07 0.00 0.01 0.00 0.00 0.98 0.03 0.25 129.85 98.10 0.52 0.05 0.20 0.01 0.00 0.00 0.00 0.00 1.00 1.45 15177.44 214.67 0.00 0.00 0.01 0.00 0.00 0.00 0.00 0.00 0.02 0.01 0.02 0.00 4.59 5.07 0.00 0.01 0.00 0.00 0.98 0.03 0.25 129.85 98.10 0.52 0.05 0.20 0.01 0.00 0.00 0.00 0.00 1.45 15177.44 214.67 0.00 0.00 0.01 0.00 0.00 0.00 0.00 0.00 0.02 0.01 0.02 0.00 4.59 5.07 0.00 0.01 0.00 0.00 0.98 0.03 0.25 129.85 98.10 0.52 0.05 0.20 0.01 0.00 0.00 0.00 0.00 1.00 1.45 15177.44 214.67 0.00 0.00 0.01 0.00 0.00 0.00 0.00 0.00 0.02 0.01 0.02 0.00 4.59 5.07 0.00 0.01 0.00 0.00 0.98 0.03 0.25 129.85 98.10 0.52 0.05 0.20 0.01 0.00 0.00 0.00 0.00

2: 3.74 600.16 40.36 0.01 0.00 0.00 0.00 0.00 0.00 0.00 0.00 0.00 0.00 0.00 0.00 338.62 287.90 0.24 0.24 0.03 0.03 0.75 0.04 0.03 240.64 180.98 0.72 0.05 0.58 0.00 0.24 0.24 0.03 0.03 1.00 3.74 600.16 40.36 0.01 0.00 0.00 0.00 0.00 0.00 0.00 0.00 0.00 0.00 0.00 0.00 338.62 287.90 0.24 0.24 0.03 0.03 0.75 0.04 0.03 240.64 180.98 0.72 0.05 0.58 0.00 0.24 0.24 0.03 0.03 3.74 600.16 40.36 0.01 0.00 0.00 0.00 0.00 0.00 0.00 0.00 0.00 0.00 0.00 0.00 338.62 287.90 0.24 0.24 0.03 0.03 0.75 0.04 0.03 240.64 180.98 0.72 0.05 0.58 0.00 0.24 0.24 0.03 0.03 1.00 3.74 600.16 40.36 0.01 0.00 0.00 0.00 0.00 0.00 0.00 0.00 0.00 0.00 0.00 0.00 338.62 287.90 0.24 0.24 0.03 0.03 0.75 0.04 0.03 240.64 180.98 0.72 0.05 0.58 0.00 0.24 0.24 0.03 0.03

3: 21.48 303.12 20528.08 0.00 0.00 0.03 0.00 0.16 0.00 0.00 0.17 0.01 0.00 0.00 0.00 7.59 11.10 0.00 0.01 0.00 0.00 1.00 0.00 0.13 130.51 246.12 0.99 0.00 0.06 0.02 0.00 0.00 0.00 0.00 1.00 21.48 303.12 20528.08 0.00 0.00 0.03 0.00 0.16 0.00 0.00 0.17 0.01 0.00 0.00 0.00 7.59 11.10 0.00 0.01 0.00 0.00 1.00 0.00 0.13 130.51 246.12 0.99 0.00 0.06 0.02 0.00 0.00 0.00 0.00 21.48 303.12 20528.08 0.00 0.00 0.03 0.00 0.16 0.00 0.00 0.17 0.01 0.00 0.00 0.00 7.59 11.10 0.00 0.01 0.00 0.00 1.00 0.00 0.13 130.51 246.12 0.99 0.00 0.06 0.02 0.00 0.00 0.00 0.00 1.00 21.48 303.12 20528.08 0.00 0.00 0.03 0.00 0.16 0.00 0.00 0.17 0.01 0.00 0.00 0.00 7.59 11.10 0.00 0.01 0.00 0.00 1.00 0.00 0.13 130.51 246.12 0.99 0.00 0.06 0.02 0.00 0.00 0.00 0.00

4: 0.31 264.14 2561.85 0.00 0.00 0.06 0.00 0.00 0.00 0.00 0.00 0.00 0.00 0.01 0.00 9.81 13.92 0.00 0.00 0.00 0.00 1.00 0.00 0.10 132.64 245.89 0.99 0.00 0.05 0.02 0.00 0.00 0.00 0.00 1.00 0.31 264.14 2561.85 0.00 0.00 0.06 0.00 0.00 0.00 0.00 0.00 0.00 0.00 0.01 0.00 9.81 13.92 0.00 0.00 0.00 0.00 1.00 0.00 0.10 132.64 245.89 0.99 0.00 0.05 0.02 0.00 0.00 0.00 0.00 0.31 264.14 2561.85 0.00 0.00 0.06 0.00 0.00 0.00 0.00 0.00 0.00 0.00 0.01 0.00 9.81 13.92 0.00 0.00 0.00 0.00 1.00 0.00 0.10 132.64 245.89 0.99 0.00 0.05 0.02 0.00 0.00 0.00 0.00 1.00 0.31 264.14 2561.85 0.00 0.00 0.06 0.00 0.00 0.00 0.00 0.00 0.00 0.00 0.01 0.00 9.81 13.92 0.00 0.00 0.00 0.00 1.00 0.00 0.10 132.64 245.89 0.99 0.00 0.05 0.02 0.00 0.00 0.00 0.00

Number of Iteration: 1
Time for I/O: 0.00000sec
Time for Entire Clustering: 0.00000sec
Root Mean Squared Error: 55443.000
