

        *** GPGPU-Sim Simulator Version 3.2.2  [build 0] ***


GPGPU-Sim PTX: simulation mode 0 (can change with PTX_SIM_MODE_FUNC environment variable:
               1=functional simulation only, 0=detailed performance simulator)
GPGPU-Sim: Configuration options:

-network_mode                           1 # Interconnection network mode
-inter_config_file   config_fermi_islip.icnt # Interconnection network config file
-gpgpu_ptx_use_cuobjdump                    1 # Use cuobjdump to extract ptx and sass from binaries
-gpgpu_experimental_lib_support                    0 # Try to extract code from cuda libraries [Broken because of unknown cudaGetExportTable]
-gpgpu_ptx_convert_to_ptxplus                    0 # Convert SASS (native ISA) to ptxplus and run ptxplus
-gpgpu_ptx_force_max_capability                   20 # Force maximum compute capability
-gpgpu_ptx_inst_debug_to_file                    0 # Dump executed instructions' debug information to file
-gpgpu_ptx_inst_debug_file       inst_debug.txt # Executed instructions' debug output file
-gpgpu_ptx_inst_debug_thread_uid                    1 # Thread UID for executed instructions' debug output
-gpgpu_simd_model                       1 # 1 = post-dominator
-gpgpu_shader_core_pipeline              1536:32 # shader core pipeline config, i.e., {<nthread>:<warpsize>}
-gpgpu_tex_cache:l1  4:128:24,L:R:m:N:L,F:128:4,128:2 # per-shader L1 texture cache  (READ-ONLY) config  {<nsets>:<bsize>:<assoc>,<rep>:<wr>:<alloc>:<wr_alloc>,<mshr>:<N>:<merge>,<mq>:<rf>}
-gpgpu_const_cache:l1 64:64:2,L:R:f:N:L,A:2:32,4 # per-shader L1 constant memory cache  (READ-ONLY) config  {<nsets>:<bsize>:<assoc>,<rep>:<wr>:<alloc>:<wr_alloc>,<mshr>:<N>:<merge>,<mq>} 
-gpgpu_cache:il1     4:128:4,L:R:f:N:L,A:2:32,4 # shader L1 instruction cache config  {<nsets>:<bsize>:<assoc>,<rep>:<wr>:<alloc>:<wr_alloc>,<mshr>:<N>:<merge>,<mq>} 
-gpgpu_cache:dl1     32:128:16,L:L:m:N:H,A:32:8,8 # per-shader L1 data cache config  {<nsets>:<bsize>:<assoc>,<rep>:<wr>:<alloc>:<wr_alloc>,<mshr>:<N>:<merge>,<mq> | none}
-gpgpu_cache:dl1PrefL1                 none # per-shader L1 data cache config  {<nsets>:<bsize>:<assoc>,<rep>:<wr>:<alloc>:<wr_alloc>,<mshr>:<N>:<merge>,<mq> | none}
-gpgpu_cache:dl1PreShared                 none # per-shader L1 data cache config  {<nsets>:<bsize>:<assoc>,<rep>:<wr>:<alloc>:<wr_alloc>,<mshr>:<N>:<merge>,<mq> | none}
-gmem_skip_L1D                          0 # global memory access skip L1D cache (implements -Xptxas -dlcm=cg, default=no skip)
-gpgpu_perfect_mem                      0 # enable perfect memory mode (no cache miss)
-n_regfile_gating_group                    4 # group of lanes that should be read/written together)
-gpgpu_clock_gated_reg_file                    0 # enable clock gated reg file for power calculations
-gpgpu_clock_gated_lanes                    0 # enable clock gated lanes for power calculations
-gpgpu_shader_registers                32768 # Number of registers per shader core. Limits number of concurrent CTAs. (default 8192)
-gpgpu_shader_cta                       8 # Maximum number of concurrent CTAs in shader (default 8)
-gpgpu_num_cta_barriers                   16 # Maximum number of named barriers per CTA (default 16)
-gpgpu_n_clusters                      15 # number of processing clusters
-gpgpu_n_cores_per_cluster                    1 # number of simd cores per cluster
-gpgpu_n_cluster_ejection_buffer_size                    8 # number of packets in ejection buffer
-gpgpu_n_ldst_response_buffer_size                    2 # number of response packets in ld/st unit ejection buffer
-gpgpu_shmem_size                   16384 # Size of shared memory per shader core (default 16kB)
-gpgpu_shmem_size                   49152 # Size of shared memory per shader core (default 16kB)
-gpgpu_shmem_size_PrefL1                16384 # Size of shared memory per shader core (default 16kB)
-gpgpu_shmem_size_PrefShared                16384 # Size of shared memory per shader core (default 16kB)
-gpgpu_shmem_num_banks                   32 # Number of banks in the shared memory in each shader core (default 16)
-gpgpu_shmem_limited_broadcast                    0 # Limit shared memory to do one broadcast per cycle (default on)
-gpgpu_shmem_warp_parts                    1 # Number of portions a warp is divided into for shared memory bank conflict check 
-gpgpu_warpdistro_shader                   -1 # Specify which shader core to collect the warp size distribution from
-gpgpu_warp_issue_shader                    0 # Specify which shader core to collect the warp issue distribution from
-gpgpu_local_mem_map                    1 # Mapping from local memory space address to simulated GPU physical address space (default = enabled)
-gpgpu_num_reg_banks                   16 # Number of register banks (default = 8)
-gpgpu_reg_bank_use_warp_id                    0 # Use warp ID in mapping registers to banks (default = off)
-gpgpu_operand_collector_num_units_sp                    6 # number of collector units (default = 4)
-gpgpu_operand_collector_num_units_sfu                    8 # number of collector units (default = 4)
-gpgpu_operand_collector_num_units_mem                    2 # number of collector units (default = 2)
-gpgpu_operand_collector_num_units_gen                    0 # number of collector units (default = 0)
-gpgpu_operand_collector_num_in_ports_sp                    2 # number of collector unit in ports (default = 1)
-gpgpu_operand_collector_num_in_ports_sfu                    1 # number of collector unit in ports (default = 1)
-gpgpu_operand_collector_num_in_ports_mem                    1 # number of collector unit in ports (default = 1)
-gpgpu_operand_collector_num_in_ports_gen                    0 # number of collector unit in ports (default = 0)
-gpgpu_operand_collector_num_out_ports_sp                    2 # number of collector unit in ports (default = 1)
-gpgpu_operand_collector_num_out_ports_sfu                    1 # number of collector unit in ports (default = 1)
-gpgpu_operand_collector_num_out_ports_mem                    1 # number of collector unit in ports (default = 1)
-gpgpu_operand_collector_num_out_ports_gen                    0 # number of collector unit in ports (default = 0)
-gpgpu_coalesce_arch                   13 # Coalescing arch (default = 13, anything else is off for now)
-gpgpu_num_sched_per_core                    2 # Number of warp schedulers per core
-gpgpu_max_insn_issue_per_warp                    1 # Max number of instructions that can be issued per warp in one cycle by scheduler
-gpgpu_simt_core_sim_order                    1 # Select the simulation order of cores in a cluster (0=Fix, 1=Round-Robin)
-gpgpu_pipeline_widths        2,1,1,2,1,1,2 # Pipeline widths ID_OC_SP,ID_OC_SFU,ID_OC_MEM,OC_EX_SP,OC_EX_SFU,OC_EX_MEM,EX_WB
-gpgpu_num_sp_units                     2 # Number of SP units (default=1)
-gpgpu_num_sfu_units                    1 # Number of SF units (default=1)
-gpgpu_num_mem_units                    1 # Number if ldst units (default=1) WARNING: not hooked up to anything
-gpgpu_scheduler                      gto # Scheduler configuration: < lrr | gto | two_level_active > If two_level_active:<num_active_warps>:<inner_prioritization>:<outer_prioritization>For complete list of prioritization values see shader.h enum scheduler_prioritization_typeDefault: gto
-gpgpu_dram_scheduler                    1 # 0 = fifo, 1 = FR-FCFS (defaul)
-gpgpu_dram_partition_queues              8:8:8:8 # i2$:$2d:d2$:$2i
-l2_ideal                               0 # Use a ideal L2 cache that always hit
-gpgpu_cache:dl2     64:128:8,L:B:m:W:L,A:32:4,4:0,32 # unified banked L2 data cache config  {<nsets>:<bsize>:<assoc>,<rep>:<wr>:<alloc>:<wr_alloc>,<mshr>:<N>:<merge>,<mq>}
-gpgpu_cache:dl2_texture_only                    0 # L2 cache used for texture only
-gpgpu_n_mem                            6 # number of memory modules (e.g. memory controllers) in gpu
-gpgpu_n_sub_partition_per_mchannel                    2 # number of memory subpartition in each memory module
-gpgpu_n_mem_per_ctrlr                    2 # number of memory chips per memory controller
-gpgpu_memlatency_stat                   14 # track and display latency statistics 0x2 enables MC, 0x4 enables queue logs
-gpgpu_frfcfs_dram_sched_queue_size                   16 # 0 = unlimited (default); # entries per chip
-gpgpu_dram_return_queue_size                  116 # 0 = unlimited (default); # entries per chip
-gpgpu_dram_buswidth                    4 # default = 4 bytes (8 bytes per cycle at DDR)
-gpgpu_dram_burst_length                    8 # Burst length of each DRAM request (default = 4 data bus cycle)
-dram_data_command_freq_ratio                    4 # Frequency ratio between DRAM data bus and command bus (default = 2 times, i.e. DDR)
-gpgpu_dram_timing_opt nbk=16:CCD=2:RRD=6:RCD=12:RAS=28:RP=12:RC=40: CL=12:WL=4:CDLR=5:WR=12:nbkgrp=4:CCDL=3:RTPL=2 # DRAM timing parameters = {nbk:tCCD:tRRD:tRCD:tRAS:tRP:tRC:CL:WL:tCDLR:tWR:nbkgrp:tCCDL:tRTPL}
-rop_latency                          120 # ROP queue latency (default 85)
-dram_latency                         100 # DRAM latency (default 30)
-gpgpu_mem_addr_mapping dramid@8;00000000.00000000.00000000.00000000.0000RRRR.RRRRRRRR.BBBCCCCB.CCSSSSSS # mapping memory address to dram model {dramid@<start bit>;<memory address map>}
-gpgpu_mem_addr_test                    0 # run sweep test to check address mapping for aliased address
-gpgpu_mem_address_mask                    1 # 0 = old addressing mask, 1 = new addressing mask, 2 = new add. mask + flipped bank sel and chip sel bits
-gpuwattch_xml_file  gpuwattch_gtx480.xml # GPUWattch XML file
-power_simulation_enabled                    1 # Turn on power simulator (1=On, 0=Off)
-power_per_cycle_dump                    0 # Dump detailed power output each cycle
-power_trace_enabled                    0 # produce a file for the power trace (1=On, 0=Off)
-power_trace_zlevel                     6 # Compression level of the power trace output log (0=no comp, 9=highest)
-steady_power_levels_enabled                    0 # produce a file for the steady power levels (1=On, 0=Off)
-steady_state_definition                  8:4 # allowed deviation:number of samples
-gpgpu_max_cycle                        0 # terminates gpu simulation early (0 = no limit)
-gpgpu_max_insn                         0 # terminates gpu simulation early (0 = no limit)
-gpgpu_max_cta                          0 # terminates gpu simulation early (0 = no limit)
-gpgpu_runtime_stat                   500 # display runtime statistics such as dram utilization {<freq>:<flag>}
-liveness_message_freq                    1 # Minimum number of seconds between simulation liveness messages (0 = always print)
-gpgpu_flush_l1_cache                    0 # Flush L1 cache at the end of each kernel call
-gpgpu_flush_l2_cache                    0 # Flush L2 cache at the end of each kernel call
-gpgpu_deadlock_detect                    1 # Stop the simulation at deadlock (1=on (default), 0=off)
-gpgpu_ptx_instruction_classification                    0 # if enabled will classify ptx instruction types per kernel (Max 255 kernels now)
-gpgpu_ptx_sim_mode                     0 # Select between Performance (default) or Functional simulation (1)
-gpgpu_clock_domains 700.0:700.0:700.0:924.0 # Clock Domain Frequencies in MhZ {<Core Clock>:<ICNT Clock>:<L2 Clock>:<DRAM Clock>}
-gpgpu_max_concurrent_kernel                    8 # maximum kernels that can run concurrently on GPU
-gpgpu_cflog_interval                    0 # Interval between each snapshot in control flow logger
-visualizer_enabled                     0 # Turn on visualizer output (1=On, 0=Off)
-visualizer_outputfile                 NULL # Specifies the output log file for visualizer
-visualizer_zlevel                      6 # Compression level of the visualizer output log (0=no comp, 9=highest)
-trace_enabled                          0 # Turn on traces
-trace_components                    none # comma seperated list of traces to enable. Complete list found in trace_streams.tup. Default none
-trace_sampling_core                    0 # The core which is printed using CORE_DPRINTF. Default 0
-trace_sampling_memory_partition                   -1 # The memory partition which is printed using MEMPART_DPRINTF. Default -1 (i.e. all)
-enable_ptx_file_line_stats                    1 # Turn on PTX source line statistic profiling. (1 = On)
-ptx_line_stats_filename gpgpu_inst_stats.txt # Output file for PTX source line statistics.
-save_embedded_ptx                      0 # saves ptx files embedded in binary as <n>.ptx
-keep                                   0 # keep intermediate files created by GPGPU-Sim when interfacing with external programs
-gpgpu_ptx_save_converted_ptxplus                    0 # Saved converted ptxplus to a file
-ptx_opcode_latency_int         4,13,4,5,145 # Opcode latencies for integers <ADD,MAX,MUL,MAD,DIV>Default 1,1,19,25,145
-ptx_opcode_latency_fp          4,13,4,5,39 # Opcode latencies for single precision floating points <ADD,MAX,MUL,MAD,DIV>Default 1,1,1,1,30
-ptx_opcode_latency_dp         8,19,8,8,330 # Opcode latencies for double precision floating points <ADD,MAX,MUL,MAD,DIV>Default 8,8,8,8,335
-ptx_opcode_initiation_int            1,2,2,1,8 # Opcode initiation intervals for integers <ADD,MAX,MUL,MAD,DIV>Default 1,1,4,4,32
-ptx_opcode_initiation_fp            1,2,1,1,4 # Opcode initiation intervals for single precision floating points <ADD,MAX,MUL,MAD,DIV>Default 1,1,1,1,5
-ptx_opcode_initiation_dp         8,16,8,8,130 # Opcode initiation intervals for double precision floating points <ADD,MAX,MUL,MAD,DIV>Default 8,8,8,8,130
DRAM Timing Options:
nbk                                    16 # number of banks
CCD                                     2 # column to column delay
RRD                                     6 # minimal delay between activation of rows in different banks
RCD                                    12 # row to column delay
RAS                                    28 # time needed to activate row
RP                                     12 # time needed to precharge (deactivate) row
RC                                     40 # row cycle time
CDLR                                    5 # switching from write to read (changes tWTR)
WR                                     12 # last data-in to row precharge
CL                                     12 # CAS latency
WL                                      4 # Write latency
nbkgrp                                  4 # number of bank groups
CCDL                                    3 # column to column delay between accesses to different bank groups
RTPL                                    2 # read to precharge delay between accesses to different bank groups
Total number of memory sub partition = 12
addr_dec_mask[CHIP]  = 0000000000000000 	high:64 low:0
addr_dec_mask[BK]    = 000000000000e100 	high:16 low:8
addr_dec_mask[ROW]   = 000000000fff0000 	high:28 low:16
addr_dec_mask[COL]   = 0000000000001eff 	high:13 low:0
addr_dec_mask[BURST] = 000000000000003f 	high:6 low:0
sub_partition_id_mask = 0000000000000100
GPGPU-Sim uArch: clock freqs: 700000000.000000:700000000.000000:700000000.000000:924000000.000000
GPGPU-Sim uArch: clock periods: 0.00000000142857142857:0.00000000142857142857:0.00000000142857142857:0.00000000108225108225
*** Initializing Memory Statistics ***
GPGPU-Sim uArch: interconnect node map (shaderID+MemID to icntID)
GPGPU-Sim uArch: Memory nodes ID start from index: 15
GPGPU-Sim uArch:    0   1   2   3   4
GPGPU-Sim uArch:    5   6   7   8   9
GPGPU-Sim uArch:   10  11  12  13  14
GPGPU-Sim uArch:   15  16  17  18  19
GPGPU-Sim uArch:   20  21  22  23  24
GPGPU-Sim uArch:   25  26
GPGPU-Sim uArch: interconnect node reverse map (icntID to shaderID+MemID)
GPGPU-Sim uArch: Memory nodes start from ID: 15
GPGPU-Sim uArch:    0   1   2   3   4
GPGPU-Sim uArch:    5   6   7   8   9
GPGPU-Sim uArch:   10  11  12  13  14
GPGPU-Sim uArch:   15  16  17  18  19
GPGPU-Sim uArch:   20  21  22  23  24
GPGPU-Sim uArch:   25  26
2a552cef618c3eed1202856b15bdbc61  /home/scratch/adwait/applications/benchmarks/CUDA/RAY/gpgpu_ptx_sim__RAY
GPGPU-Sim uArch: performance model initialization complete.
GPGPU-Sim PTX: __cudaRegisterFatBinary, fat_cubin_handle = 1, filename=rayTracing.cu
self exe links to: /home/scratch/adwait/applications/benchmarks/CUDA/RAY/gpgpu_ptx_sim__RAY
Running md5sum using "md5sum /home/scratch/adwait/applications/benchmarks/CUDA/RAY/gpgpu_ptx_sim__RAY "
Running cuobjdump using "$CUDA_INSTALL_PATH/bin/cuobjdump -ptx -elf -sass /home/scratch/adwait/applications/benchmarks/CUDA/RAY/gpgpu_ptx_sim__RAY > _cuobjdump_complete_output_AA7IEe"
Parsing file _cuobjdump_complete_output_AA7IEe
######### cuobjdump parser ########
## Adding new section ELF
Adding arch: sm_20
Adding identifier: rayTracing.cu
## Adding new section PTX
Adding ptx filename: _cuobjdump_1.ptx
Adding arch: sm_20
Adding identifier: rayTracing.cu
Done parsing!!!
GPGPU-Sim PTX: __cudaRegisterFunction _Z6renderPjP4Nodejjff : hostFun 0x0x40d033, fat_cubin_handle = 1
GPGPU-Sim PTX: allocating stack frame region for .param "__cudaretf__Zmi6float3S_" from 0x0 to 0xc
GPGPU-Sim PTX: allocating stack frame region for .param "__cudaparmf1__Zmi6float3S_" from 0xc to 0x18
GPGPU-Sim PTX: allocating stack frame region for .param "__cudaparmf2__Zmi6float3S_" from 0x18 to 0x24
GPGPU-Sim PTX: allocating stack frame region for .param "__cudaretf__Z9normalize6float3" from 0x0 to 0xc
GPGPU-Sim PTX: allocating stack frame region for .param "__cudaparmf1__Z9normalize6float3" from 0xc to 0x18
GPGPU-Sim PTX: allocating stack frame region for .param "__cudaretf__Z18intersectionSphere5Rayon6float3f" from 0x0 to 0x4
GPGPU-Sim PTX: allocating stack frame region for .param "__cudaparmf1__Z18intersectionSphere5Rayon6float3f" from 0x4 to 0x1c
GPGPU-Sim PTX: allocating stack frame region for .param "__cudaparmf2__Z18intersectionSphere5Rayon6float3f" from 0x1c to 0x28
GPGPU-Sim PTX: allocating stack frame region for .param "__cudaparmf3__Z18intersectionSphere5Rayon6float3f" from 0x28 to 0x2c
GPGPU-Sim PTX: allocating stack frame region for .param "__cudaretf__Z16intersectionPlan5Rayon6float3S0_" from 0x0 to 0x4
GPGPU-Sim PTX: allocating stack frame region for .param "__cudaparmf1__Z16intersectionPlan5Rayon6float3S0_" from 0x4 to 0x1c
GPGPU-Sim PTX: allocating stack frame region for .param "__cudaparmf2__Z16intersectionPlan5Rayon6float3S0_" from 0x1c to 0x28
GPGPU-Sim PTX: allocating stack frame region for .param "__cudaparmf3__Z16intersectionPlan5Rayon6float3S0_" from 0x28 to 0x34
GPGPU-Sim PTX: allocating stack frame region for .param "__cudaretf__Z10getNormale6float3S_" from 0x0 to 0xc
GPGPU-Sim PTX: allocating stack frame region for .param "__cudaparmf1__Z10getNormale6float3S_" from 0xc to 0x18
GPGPU-Sim PTX: allocating stack frame region for .param "__cudaparmf2__Z10getNormale6float3S_" from 0x18 to 0x24
GPGPU-Sim PTX: allocating stack frame region for .param "__cudaretf__Z11getNormaleP6float3" from 0x0 to 0xc
GPGPU-Sim PTX: allocating stack frame region for .param "__cudaparmf1__Z11getNormaleP6float3" from 0xc to 0x18
GPGPU-Sim PTX: allocating stack frame region for .param "__cudaretf__Z14rgbaFloatToInt6float4" from 0x0 to 0x4
GPGPU-Sim PTX: allocating stack frame region for .param "__cudaparmf1__Z14rgbaFloatToInt6float4" from 0x4 to 0x14
GPGPU-Sim PTX: allocating stack frame region for .param "__cudaretf__Z12notShadowRayP4Node6float3S1_f" from 0x0 to 0x4
GPGPU-Sim PTX: allocating stack frame region for .param "__cudaparmf1__Z12notShadowRayP4Node6float3S1_f" from 0x4 to 0xc
GPGPU-Sim PTX: allocating stack frame region for .param "__cudaparmf2__Z12notShadowRayP4Node6float3S1_f" from 0xc to 0x18
GPGPU-Sim PTX: allocating stack frame region for .param "__cudaparmf3__Z12notShadowRayP4Node6float3S1_f" from 0x18 to 0x24
GPGPU-Sim PTX: allocating stack frame region for .param "__cudaparmf4__Z12notShadowRayP4Node6float3S1_f" from 0x24 to 0x28
GPGPU-Sim PTX: allocating stack frame region for .param "__cudaretf__Z15float2int_pow20f" from 0x0 to 0x4
GPGPU-Sim PTX: allocating stack frame region for .param "__cudaparmf1__Z15float2int_pow20f" from 0x4 to 0x8
GPGPU-Sim PTX: allocating stack frame region for .param "__cudaretf__Z15float2int_pow50f" from 0x0 to 0x4
GPGPU-Sim PTX: allocating stack frame region for .param "__cudaparmf1__Z15float2int_pow50f" from 0x4 to 0x8
GPGPU-Sim PTX: allocating stack frame region for .param "__cudaparmf1__ZN4dim3C1Ejjj" from 0x0 to 0x8
GPGPU-Sim PTX: allocating stack frame region for .param "__cudaparmf2__ZN4dim3C1Ejjj" from 0x8 to 0xc
GPGPU-Sim PTX: allocating stack frame region for .param "__cudaparmf3__ZN4dim3C1Ejjj" from 0xc to 0x10
GPGPU-Sim PTX: allocating stack frame region for .param "__cudaparmf4__ZN4dim3C1Ejjj" from 0x10 to 0x14
GPGPU-Sim PTX: instruction assembly for function '_Zmi6float3S_'...   done.
GPGPU-Sim PTX: finding reconvergence points for '_Zmi6float3S_'...
GPGPU-Sim PTX: Finding dominators for '_Zmi6float3S_'...
GPGPU-Sim PTX: Finding immediate dominators for '_Zmi6float3S_'...
GPGPU-Sim PTX: Finding postdominators for '_Zmi6float3S_'...
GPGPU-Sim PTX: Finding immediate postdominators for '_Zmi6float3S_'...
GPGPU-Sim PTX: pre-decoding instructions for '_Zmi6float3S_'...
GPGPU-Sim PTX: reconvergence points for _Zmi6float3S_...
GPGPU-Sim PTX: ... end of reconvergence points for _Zmi6float3S_
GPGPU-Sim PTX: ... done pre-decoding instructions for '_Zmi6float3S_'.
GPGPU-Sim PTX: instruction assembly for function '_Z9normalize6float3'...   done.
GPGPU-Sim PTX: finding reconvergence points for '_Z9normalize6float3'...
GPGPU-Sim PTX: Finding dominators for '_Z9normalize6float3'...
GPGPU-Sim PTX: Finding immediate dominators for '_Z9normalize6float3'...
GPGPU-Sim PTX: Finding postdominators for '_Z9normalize6float3'...
GPGPU-Sim PTX: Finding immediate postdominators for '_Z9normalize6float3'...
GPGPU-Sim PTX: pre-decoding instructions for '_Z9normalize6float3'...
GPGPU-Sim PTX: reconvergence points for _Z9normalize6float3...
GPGPU-Sim PTX: ... end of reconvergence points for _Z9normalize6float3
GPGPU-Sim PTX: ... done pre-decoding instructions for '_Z9normalize6float3'.
GPGPU-Sim PTX: instruction assembly for function '_Z18intersectionSphere5Rayon6float3f'...   done.
GPGPU-Sim PTX: finding reconvergence points for '_Z18intersectionSphere5Rayon6float3f'...
GPGPU-Sim PTX: Finding dominators for '_Z18intersectionSphere5Rayon6float3f'...
GPGPU-Sim PTX: Finding immediate dominators for '_Z18intersectionSphere5Rayon6float3f'...
GPGPU-Sim PTX: Finding postdominators for '_Z18intersectionSphere5Rayon6float3f'...
GPGPU-Sim PTX: Finding immediate postdominators for '_Z18intersectionSphere5Rayon6float3f'...
GPGPU-Sim PTX: pre-decoding instructions for '_Z18intersectionSphere5Rayon6float3f'...
GPGPU-Sim PTX: reconvergence points for _Z18intersectionSphere5Rayon6float3f...
GPGPU-Sim PTX:  1 (potential) branch divergence @  PC=0x250 (_1.ptx:173) @%p2 bra $Lt_2_3074;
GPGPU-Sim PTX:    immediate post dominator      @  PC=0x2c0 (_1.ptx:193) mov.f32 %f39, %f32;
GPGPU-Sim PTX:  2 (potential) branch divergence @  PC=0x260 (_1.ptx:175) bra.uni $Lt_2_2818;
GPGPU-Sim PTX:    immediate post dominator      @  PC=0x2c0 (_1.ptx:193) mov.f32 %f39, %f32;
GPGPU-Sim PTX:  3 (potential) branch divergence @  PC=0x280 (_1.ptx:180) @!%p3 bra $Lt_2_3586;
GPGPU-Sim PTX:    immediate post dominator      @  PC=0x2c0 (_1.ptx:193) mov.f32 %f39, %f32;
GPGPU-Sim PTX:  4 (potential) branch divergence @  PC=0x290 (_1.ptx:182) bra.uni $Lt_2_3330;
GPGPU-Sim PTX:    immediate post dominator      @  PC=0x2c0 (_1.ptx:193) mov.f32 %f39, %f32;
GPGPU-Sim PTX: ... end of reconvergence points for _Z18intersectionSphere5Rayon6float3f
GPGPU-Sim PTX: ... done pre-decoding instructions for '_Z18intersectionSphere5Rayon6float3f'.
GPGPU-Sim PTX: instruction assembly for function '_Z16intersectionPlan5Rayon6float3S0_'...   done.
GPGPU-Sim PTX: finding reconvergence points for '_Z16intersectionPlan5Rayon6float3S0_'...
GPGPU-Sim PTX: Finding dominators for '_Z16intersectionPlan5Rayon6float3S0_'...
GPGPU-Sim PTX: Finding immediate dominators for '_Z16intersectionPlan5Rayon6float3S0_'...
GPGPU-Sim PTX: Finding postdominators for '_Z16intersectionPlan5Rayon6float3S0_'...
GPGPU-Sim PTX: Finding immediate postdominators for '_Z16intersectionPlan5Rayon6float3S0_'...
GPGPU-Sim PTX: pre-decoding instructions for '_Z16intersectionPlan5Rayon6float3S0_'...
GPGPU-Sim PTX: reconvergence points for _Z16intersectionPlan5Rayon6float3S0_...
GPGPU-Sim PTX:  1 (potential) branch divergence @  PC=0x320 (_1.ptx:214) @!%p1 bra $Lt_3_2050;
GPGPU-Sim PTX:    immediate post dominator      @  PC=0x368 (_1.ptx:227) mov.f32 %f14, %f9;
GPGPU-Sim PTX:  2 (potential) branch divergence @  PC=0x330 (_1.ptx:216) bra.uni $Lt_3_1794;
GPGPU-Sim PTX:    immediate post dominator      @  PC=0x368 (_1.ptx:227) mov.f32 %f14, %f9;
GPGPU-Sim PTX: ... end of reconvergence points for _Z16intersectionPlan5Rayon6float3S0_
GPGPU-Sim PTX: ... done pre-decoding instructions for '_Z16intersectionPlan5Rayon6float3S0_'.
GPGPU-Sim PTX: instruction assembly for function '_Z10getNormale6float3S_'...   done.
GPGPU-Sim PTX: finding reconvergence points for '_Z10getNormale6float3S_'...
GPGPU-Sim PTX: Finding dominators for '_Z10getNormale6float3S_'...
GPGPU-Sim PTX: Finding immediate dominators for '_Z10getNormale6float3S_'...
GPGPU-Sim PTX: Finding postdominators for '_Z10getNormale6float3S_'...
GPGPU-Sim PTX: Finding immediate postdominators for '_Z10getNormale6float3S_'...
GPGPU-Sim PTX: pre-decoding instructions for '_Z10getNormale6float3S_'...
GPGPU-Sim PTX: reconvergence points for _Z10getNormale6float3S_...
GPGPU-Sim PTX: ... end of reconvergence points for _Z10getNormale6float3S_
GPGPU-Sim PTX: ... done pre-decoding instructions for '_Z10getNormale6float3S_'.
GPGPU-Sim PTX: instruction assembly for function '_Z11getNormaleP6float3'...   done.
GPGPU-Sim PTX: finding reconvergence points for '_Z11getNormaleP6float3'...
GPGPU-Sim PTX: Finding dominators for '_Z11getNormaleP6float3'...
GPGPU-Sim PTX: Finding immediate dominators for '_Z11getNormaleP6float3'...
GPGPU-Sim PTX: Finding postdominators for '_Z11getNormaleP6float3'...
GPGPU-Sim PTX: Finding immediate postdominators for '_Z11getNormaleP6float3'...
GPGPU-Sim PTX: pre-decoding instructions for '_Z11getNormaleP6float3'...
GPGPU-Sim PTX: reconvergence points for _Z11getNormaleP6float3...
GPGPU-Sim PTX: ... end of reconvergence points for _Z11getNormaleP6float3
GPGPU-Sim PTX: ... done pre-decoding instructions for '_Z11getNormaleP6float3'.
GPGPU-Sim PTX: instruction assembly for function '_Z14rgbaFloatToInt6float4'...   done.
GPGPU-Sim PTX: finding reconvergence points for '_Z14rgbaFloatToInt6float4'...
GPGPU-Sim PTX: Finding dominators for '_Z14rgbaFloatToInt6float4'...
GPGPU-Sim PTX: Finding immediate dominators for '_Z14rgbaFloatToInt6float4'...
GPGPU-Sim PTX: Finding postdominators for '_Z14rgbaFloatToInt6float4'...
GPGPU-Sim PTX: Finding immediate postdominators for '_Z14rgbaFloatToInt6float4'...
GPGPU-Sim PTX: pre-decoding instructions for '_Z14rgbaFloatToInt6float4'...
GPGPU-Sim PTX: reconvergence points for _Z14rgbaFloatToInt6float4...
GPGPU-Sim PTX: ... end of reconvergence points for _Z14rgbaFloatToInt6float4
GPGPU-Sim PTX: ... done pre-decoding instructions for '_Z14rgbaFloatToInt6float4'.
GPGPU-Sim PTX: allocating global region for "cnode" from 0x100 to 0x1a0 (global memory space)
GPGPU-Sim PTX: instruction assembly for function '_Z12notShadowRayP4Node6float3S1_f'...   done.
GPGPU-Sim PTX: finding reconvergence points for '_Z12notShadowRayP4Node6float3S1_f'...
GPGPU-Sim PTX: Finding dominators for '_Z12notShadowRayP4Node6float3S1_f'...
GPGPU-Sim PTX: Finding immediate dominators for '_Z12notShadowRayP4Node6float3S1_f'...
GPGPU-Sim PTX: Finding postdominators for '_Z12notShadowRayP4Node6float3S1_f'...
GPGPU-Sim PTX: Finding immediate postdominators for '_Z12notShadowRayP4Node6float3S1_f'...
GPGPU-Sim PTX: pre-decoding instructions for '_Z12notShadowRayP4Node6float3S1_f'...
GPGPU-Sim PTX: reconvergence points for _Z12notShadowRayP4Node6float3S1_f...
GPGPU-Sim PTX:  1 (potential) branch divergence @  PC=0x638 (_1.ptx:364) @%p1 bra $Lt_7_8450;
GPGPU-Sim PTX:    immediate post dominator      @  PC=0x828 (_1.ptx:441) mov.f32 %f58, 0f00000000;    // 0
GPGPU-Sim PTX:  2 (potential) branch divergence @  PC=0x658 (_1.ptx:369) @!%p2 bra $Lt_7_8962;
GPGPU-Sim PTX:    immediate post dominator      @  PC=0x6b8 (_1.ptx:385) mov.f32 %f28, %f20;
GPGPU-Sim PTX:  3 (potential) branch divergence @  PC=0x668 (_1.ptx:371) bra.uni $Lt_7_8706;
GPGPU-Sim PTX:    immediate post dominator      @  PC=0x6b8 (_1.ptx:385) mov.f32 %f28, %f20;
GPGPU-Sim PTX:  4 (potential) branch divergence @  PC=0x6c0 (_1.ptx:386) bra.uni $Lt_7_8194;
GPGPU-Sim PTX:    immediate post dominator      @  PC=0x828 (_1.ptx:441) mov.f32 %f58, 0f00000000;    // 0
GPGPU-Sim PTX:  5 (potential) branch divergence @  PC=0x7b0 (_1.ptx:418) @%p5 bra $Lt_7_9474;
GPGPU-Sim PTX:    immediate post dominator      @  PC=0x820 (_1.ptx:438) mov.f32 %f28, %f51;
GPGPU-Sim PTX:  6 (potential) branch divergence @  PC=0x7c0 (_1.ptx:420) bra.uni $Lt_7_9730;
GPGPU-Sim PTX:    immediate post dominator      @  PC=0x820 (_1.ptx:438) mov.f32 %f28, %f51;
GPGPU-Sim PTX:  7 (potential) branch divergence @  PC=0x7e0 (_1.ptx:425) @!%p6 bra $Lt_7_9986;
GPGPU-Sim PTX:    immediate post dominator      @  PC=0x820 (_1.ptx:438) mov.f32 %f28, %f51;
GPGPU-Sim PTX:  8 (potential) branch divergence @  PC=0x7f0 (_1.ptx:427) bra.uni $Lt_7_9730;
GPGPU-Sim PTX:    immediate post dominator      @  PC=0x820 (_1.ptx:438) mov.f32 %f28, %f51;
GPGPU-Sim PTX:  9 (potential) branch divergence @  PC=0x838 (_1.ptx:443) @!%p7 bra $Lt_7_10242;
GPGPU-Sim PTX:    immediate post dominator      @  PC=0x8e8 (_1.ptx:468) add.s32 %r1, %r1, 1;
GPGPU-Sim PTX: 10 (potential) branch divergence @  PC=0x8d8 (_1.ptx:463) @!%p8 bra $Lt_7_10242;
GPGPU-Sim PTX:    immediate post dominator      @  PC=0x8e8 (_1.ptx:468) add.s32 %r1, %r1, 1;
GPGPU-Sim PTX: 11 (potential) branch divergence @  PC=0x908 (_1.ptx:472) @%p9 bra $Lt_7_10754;
GPGPU-Sim PTX:    immediate post dominator      @  PC=0x960 (_1.ptx:486) selp.s32 %r10, 1, 0, %p11;
GPGPU-Sim PTX: 12 (potential) branch divergence @  PC=0x930 (_1.ptx:477) @%p10 bra $L_7_7170;
GPGPU-Sim PTX:    immediate post dominator      @  PC=0x960 (_1.ptx:486) selp.s32 %r10, 1, 0, %p11;
GPGPU-Sim PTX: 13 (potential) branch divergence @  PC=0x938 (_1.ptx:478) bra.uni $L_7_7938;
GPGPU-Sim PTX:    immediate post dominator      @  PC=0x960 (_1.ptx:486) selp.s32 %r10, 1, 0, %p11;
GPGPU-Sim PTX: ... end of reconvergence points for _Z12notShadowRayP4Node6float3S1_f
GPGPU-Sim PTX: ... done pre-decoding instructions for '_Z12notShadowRayP4Node6float3S1_f'.
GPGPU-Sim PTX: instruction assembly for function '_Z15float2int_pow20f'...   done.
GPGPU-Sim PTX: finding reconvergence points for '_Z15float2int_pow20f'...
GPGPU-Sim PTX: Finding dominators for '_Z15float2int_pow20f'...
GPGPU-Sim PTX: Finding immediate dominators for '_Z15float2int_pow20f'...
GPGPU-Sim PTX: Finding postdominators for '_Z15float2int_pow20f'...
GPGPU-Sim PTX: Finding immediate postdominators for '_Z15float2int_pow20f'...
GPGPU-Sim PTX: pre-decoding instructions for '_Z15float2int_pow20f'...
GPGPU-Sim PTX: reconvergence points for _Z15float2int_pow20f...
GPGPU-Sim PTX: ... end of reconvergence points for _Z15float2int_pow20f
GPGPU-Sim PTX: ... done pre-decoding instructions for '_Z15float2int_pow20f'.
GPGPU-Sim PTX: instruction assembly for function '_Z15float2int_pow50f'...   done.
GPGPU-Sim PTX: finding reconvergence points for '_Z15float2int_pow50f'...
GPGPU-Sim PTX: Finding dominators for '_Z15float2int_pow50f'...
GPGPU-Sim PTX: Finding immediate dominators for '_Z15float2int_pow50f'...
GPGPU-Sim PTX: Finding postdominators for '_Z15float2int_pow50f'...
GPGPU-Sim PTX: Finding immediate postdominators for '_Z15float2int_pow50f'...
GPGPU-Sim PTX: pre-decoding instructions for '_Z15float2int_pow50f'...
GPGPU-Sim PTX: reconvergence points for _Z15float2int_pow50f...
GPGPU-Sim PTX: ... end of reconvergence points for _Z15float2int_pow50f
GPGPU-Sim PTX: ... done pre-decoding instructions for '_Z15float2int_pow50f'.
GPGPU-Sim PTX: allocating constant region for "MView" from 0x200 to 0x230 (global memory space) 1
GPGPU-Sim PTX: allocating stack frame region for .local "__cuda___cuda_local_var_36206_9_non_const_pile_32240" from 0x0 to 0x50
GPGPU-Sim PTX: instruction assembly for function '_Z6renderPjP4Nodejjff'...   done.
GPGPU-Sim PTX: finding reconvergence points for '_Z6renderPjP4Nodejjff'...
GPGPU-Sim PTX: Finding dominators for '_Z6renderPjP4Nodejjff'...
GPGPU-Sim PTX: Finding immediate dominators for '_Z6renderPjP4Nodejjff'...
GPGPU-Sim PTX: Finding postdominators for '_Z6renderPjP4Nodejjff'...
GPGPU-Sim PTX: Finding immediate postdominators for '_Z6renderPjP4Nodejjff'...
GPGPU-Sim PTX: pre-decoding instructions for '_Z6renderPjP4Nodejjff'...
GPGPU-Sim PTX: reconvergence points for _Z6renderPjP4Nodejjff...
GPGPU-Sim PTX:  1 (potential) branch divergence @  PC=0xdb0 (_1.ptx:663) @%p1 bra $Lt_10_44034;
GPGPU-Sim PTX:    immediate post dominator      @  PC=0x2370 (_1.ptx:1495) exit;
GPGPU-Sim PTX:  2 (potential) branch divergence @  PC=0x1028 (_1.ptx:751) @%p2 bra $Lt_10_45570;
GPGPU-Sim PTX:    immediate post dominator      @  PC=0x11b8 (_1.ptx:815) mov.f32 %f108, 0f00000000;   // 0
GPGPU-Sim PTX:  3 (potential) branch divergence @  PC=0x1048 (_1.ptx:756) @!%p3 bra $Lt_10_46082;
GPGPU-Sim PTX:    immediate post dominator      @  PC=0x1090 (_1.ptx:769) mov.f32 %f87, %f82;
GPGPU-Sim PTX:  4 (potential) branch divergence @  PC=0x1058 (_1.ptx:758) bra.uni $Lt_10_45826;
GPGPU-Sim PTX:    immediate post dominator      @  PC=0x1090 (_1.ptx:769) mov.f32 %f87, %f82;
GPGPU-Sim PTX:  5 (potential) branch divergence @  PC=0x1098 (_1.ptx:770) bra.uni $Lt_10_45314;
GPGPU-Sim PTX:    immediate post dominator      @  PC=0x11b8 (_1.ptx:815) mov.f32 %f108, 0f00000000;   // 0
GPGPU-Sim PTX:  6 (potential) branch divergence @  PC=0x1140 (_1.ptx:793) @%p6 bra $Lt_10_46594;
GPGPU-Sim PTX:    immediate post dominator      @  PC=0x11b0 (_1.ptx:813) mov.f32 %f87, %f101;
GPGPU-Sim PTX:  7 (potential) branch divergence @  PC=0x1150 (_1.ptx:795) bra.uni $Lt_10_46850;
GPGPU-Sim PTX:    immediate post dominator      @  PC=0x11b0 (_1.ptx:813) mov.f32 %f87, %f101;
GPGPU-Sim PTX:  8 (potential) branch divergence @  PC=0x1170 (_1.ptx:800) @!%p7 bra $Lt_10_47106;
GPGPU-Sim PTX:    immediate post dominator      @  PC=0x11b0 (_1.ptx:813) mov.f32 %f87, %f101;
GPGPU-Sim PTX:  9 (potential) branch divergence @  PC=0x1180 (_1.ptx:802) bra.uni $Lt_10_46850;
GPGPU-Sim PTX:    immediate post dominator      @  PC=0x11b0 (_1.ptx:813) mov.f32 %f87, %f101;
GPGPU-Sim PTX: 10 (potential) branch divergence @  PC=0x11f8 (_1.ptx:823) @%p8 bra $Lt_10_47362;
GPGPU-Sim PTX:    immediate post dominator      @  PC=0x1210 (_1.ptx:829) add.s32 %r25, %r25, 1;
GPGPU-Sim PTX: 11 (potential) branch divergence @  PC=0x1230 (_1.ptx:833) @%p9 bra $Lt_10_45058;
GPGPU-Sim PTX:    immediate post dominator      @  PC=0x1238 (_1.ptx:834) mov.f32 %f109, 0f00000000;   // 0
GPGPU-Sim PTX: 12 (potential) branch divergence @  PC=0x1280 (_1.ptx:843) @%p10 bra $Lt_10_48130;
GPGPU-Sim PTX:    immediate post dominator      @  PC=0x2140 (_1.ptx:1416) add.s32 %r23, %r23, 1;
GPGPU-Sim PTX: 13 (potential) branch divergence @  PC=0x1330 (_1.ptx:868) @%p11 bra $Lt_10_48898;
GPGPU-Sim PTX:    immediate post dominator      @  PC=0x13b8 (_1.ptx:888) sub.f32 %f136, %f21, %f119;
GPGPU-Sim PTX: 14 (potential) branch divergence @  PC=0x1350 (_1.ptx:873) bra.uni $Lt_10_48642;
GPGPU-Sim PTX:    immediate post dominator      @  PC=0x13b8 (_1.ptx:888) sub.f32 %f136, %f21, %f119;
GPGPU-Sim PTX: 15 (potential) branch divergence @  PC=0x1430 (_1.ptx:903) @!%p12 bra $Lt_10_49410;
GPGPU-Sim PTX:    immediate post dominator      @  PC=0x1470 (_1.ptx:915) mov.f32 %f153, 0f3d4ccccd;   // 0.05
GPGPU-Sim PTX: 16 (potential) branch divergence @  PC=0x1450 (_1.ptx:908) bra.uni $Lt_10_49154;
GPGPU-Sim PTX:    immediate post dominator      @  PC=0x1470 (_1.ptx:915) mov.f32 %f153, 0f3d4ccccd;   // 0.05
GPGPU-Sim PTX: 17 (potential) branch divergence @  PC=0x1578 (_1.ptx:949) @!%p13 bra $Lt_10_58114;
GPGPU-Sim PTX:    immediate post dominator      @  PC=0x2080 (_1.ptx:1388) add.f32 %f399, %f126, %f126;
GPGPU-Sim PTX: 18 (potential) branch divergence @  PC=0x15c0 (_1.ptx:961) @%p14 bra $Lt_10_49922;
GPGPU-Sim PTX:    immediate post dominator      @  PC=0x17b0 (_1.ptx:1039) mov.f32 %f221, 0f00000000;   // 0
GPGPU-Sim PTX: 19 (potential) branch divergence @  PC=0x15e0 (_1.ptx:966) @!%p15 bra $Lt_10_50434;
GPGPU-Sim PTX:    immediate post dominator      @  PC=0x1638 (_1.ptx:982) mov.f32 %f190, %f183;
GPGPU-Sim PTX: 20 (potential) branch divergence @  PC=0x15f0 (_1.ptx:968) bra.uni $Lt_10_50178;
GPGPU-Sim PTX:    immediate post dominator      @  PC=0x1638 (_1.ptx:982) mov.f32 %f190, %f183;
GPGPU-Sim PTX: 21 (potential) branch divergence @  PC=0x1640 (_1.ptx:983) bra.uni $Lt_10_49666;
GPGPU-Sim PTX:    immediate post dominator      @  PC=0x17b0 (_1.ptx:1039) mov.f32 %f221, 0f00000000;   // 0
GPGPU-Sim PTX: 22 (potential) branch divergence @  PC=0x1738 (_1.ptx:1016) @%p18 bra $Lt_10_50946;
GPGPU-Sim PTX:    immediate post dominator      @  PC=0x17a8 (_1.ptx:1036) mov.f32 %f190, %f214;
GPGPU-Sim PTX: 23 (potential) branch divergence @  PC=0x1748 (_1.ptx:1018) bra.uni $Lt_10_51202;
GPGPU-Sim PTX:    immediate post dominator      @  PC=0x17a8 (_1.ptx:1036) mov.f32 %f190, %f214;
GPGPU-Sim PTX: 24 (potential) branch divergence @  PC=0x1768 (_1.ptx:1023) @!%p19 bra $Lt_10_51458;
GPGPU-Sim PTX:    immediate post dominator      @  PC=0x17a8 (_1.ptx:1036) mov.f32 %f190, %f214;
GPGPU-Sim PTX: 25 (potential) branch divergence @  PC=0x1778 (_1.ptx:1025) bra.uni $Lt_10_51202;
GPGPU-Sim PTX:    immediate post dominator      @  PC=0x17a8 (_1.ptx:1036) mov.f32 %f190, %f214;
GPGPU-Sim PTX: 26 (potential) branch divergence @  PC=0x17c0 (_1.ptx:1041) @!%p20 bra $Lt_10_58370;
GPGPU-Sim PTX:    immediate post dominator      @  PC=0x1828 (_1.ptx:1057) add.s32 %r50, %r50, 1;
GPGPU-Sim PTX: 27 (potential) branch divergence @  PC=0x1818 (_1.ptx:1052) @!%p21 bra $Lt_10_58370;
GPGPU-Sim PTX:    immediate post dominator      @  PC=0x1828 (_1.ptx:1057) add.s32 %r50, %r50, 1;
GPGPU-Sim PTX: 28 (potential) branch divergence @  PC=0x1848 (_1.ptx:1061) @%p22 bra $Lt_10_58882;
GPGPU-Sim PTX:    immediate post dominator      @  PC=0x1880 (_1.ptx:1071) @!%p23 bra $Lt_10_58114;
GPGPU-Sim PTX: 29 (potential) branch divergence @  PC=0x1860 (_1.ptx:1064) @%p23 bra $L_10_42498;
GPGPU-Sim PTX:    immediate post dominator      @  PC=0x1880 (_1.ptx:1071) @!%p23 bra $Lt_10_58114;
GPGPU-Sim PTX: 30 (potential) branch divergence @  PC=0x1868 (_1.ptx:1065) bra.uni $L_10_43266;
GPGPU-Sim PTX:    immediate post dominator      @  PC=0x1880 (_1.ptx:1071) @!%p23 bra $Lt_10_58114;
GPGPU-Sim PTX: 31 (potential) branch divergence @  PC=0x1880 (_1.ptx:1071) @!%p23 bra $Lt_10_58114;
GPGPU-Sim PTX:    immediate post dominator      @  PC=0x2080 (_1.ptx:1388) add.f32 %f399, %f126, %f126;
GPGPU-Sim PTX: 32 (potential) branch divergence @  PC=0x19c8 (_1.ptx:1115) @!%p24 bra $Lt_10_51714;
GPGPU-Sim PTX:    immediate post dominator      @  PC=0x2040 (_1.ptx:1375) mov.f32 %f394, 0f3f4ccccd;   // 0.8
GPGPU-Sim PTX: 33 (potential) branch divergence @  PC=0x19d8 (_1.ptx:1118) bra.uni $LDWendi___isnanf_192_1;
GPGPU-Sim PTX:    immediate post dominator      @  PC=0x2040 (_1.ptx:1375) mov.f32 %f394, 0f3f4ccccd;   // 0.8
GPGPU-Sim PTX: 34 (potential) branch divergence @  PC=0x19f8 (_1.ptx:1124) @!%p25 bra $Lt_10_7682;
GPGPU-Sim PTX:    immediate post dominator      @  PC=0x2040 (_1.ptx:1375) mov.f32 %f394, 0f3f4ccccd;   // 0.8
GPGPU-Sim PTX: 35 (potential) branch divergence @  PC=0x1a00 (_1.ptx:1125) bra.uni $Lt_10_7938;
GPGPU-Sim PTX:    immediate post dominator      @  PC=0x1a20 (_1.ptx:1133) mov.f32 %f272, 0f7f800000;   // ((1.0F)/(0.0F))
GPGPU-Sim PTX: 36 (potential) branch divergence @  PC=0x1a18 (_1.ptx:1130) bra.uni $LDWendi___isnanf_192_1;
GPGPU-Sim PTX:    immediate post dominator      @  PC=0x2040 (_1.ptx:1375) mov.f32 %f394, 0f3f4ccccd;   // 0.8
GPGPU-Sim PTX: 37 (potential) branch divergence @  PC=0x1a30 (_1.ptx:1135) @!%p26 bra $Lt_10_52226;
GPGPU-Sim PTX:    immediate post dominator      @  PC=0x2040 (_1.ptx:1375) mov.f32 %f394, 0f3f4ccccd;   // 0.8
GPGPU-Sim PTX: 38 (potential) branch divergence @  PC=0x1a40 (_1.ptx:1138) bra.uni $LDWendi___isnanf_192_1;
GPGPU-Sim PTX:    immediate post dominator      @  PC=0x2040 (_1.ptx:1375) mov.f32 %f394, 0f3f4ccccd;   // 0.8
GPGPU-Sim PTX: 39 (potential) branch divergence @  PC=0x1a58 (_1.ptx:1142) @!%p27 bra $Lt_10_52738;
GPGPU-Sim PTX:    immediate post dominator      @  PC=0x2040 (_1.ptx:1375) mov.f32 %f394, 0f3f4ccccd;   // 0.8
GPGPU-Sim PTX: 40 (potential) branch divergence @  PC=0x1ab8 (_1.ptx:1155) bra.uni $LDWendi___isnanf_192_1;
GPGPU-Sim PTX:    immediate post dominator      @  PC=0x2040 (_1.ptx:1375) mov.f32 %f394, 0f3f4ccccd;   // 0.8
GPGPU-Sim PTX: 41 (potential) branch divergence @  PC=0x1ad0 (_1.ptx:1159) @!%p29 bra $Lt_10_53250;
GPGPU-Sim PTX:    immediate post dominator      @  PC=0x2040 (_1.ptx:1375) mov.f32 %f394, 0f3f4ccccd;   // 0.8
GPGPU-Sim PTX: 42 (potential) branch divergence @  PC=0x1b20 (_1.ptx:1170) @!%p30 bra $Lt_10_53762;
GPGPU-Sim PTX:    immediate post dominator      @  PC=0x1b40 (_1.ptx:1177) mov.f32 %f268, %f284;
GPGPU-Sim PTX: 43 (potential) branch divergence @  PC=0x1b48 (_1.ptx:1178) bra.uni $LDWendi___isnanf_192_1;
GPGPU-Sim PTX:    immediate post dominator      @  PC=0x2040 (_1.ptx:1375) mov.f32 %f394, 0f3f4ccccd;   // 0.8
GPGPU-Sim PTX: 44 (potential) branch divergence @  PC=0x1b60 (_1.ptx:1183) @!%p31 bra $Lt_10_59394;
GPGPU-Sim PTX:    immediate post dominator      @  PC=0x2040 (_1.ptx:1375) mov.f32 %f394, 0f3f4ccccd;   // 0.8
GPGPU-Sim PTX: 45 (potential) branch divergence @  PC=0x1b88 (_1.ptx:1188) @!%p32 bra $Lt_10_59394;
GPGPU-Sim PTX:    immediate post dominator      @  PC=0x2040 (_1.ptx:1375) mov.f32 %f394, 0f3f4ccccd;   // 0.8
GPGPU-Sim PTX: 46 (potential) branch divergence @  PC=0x1ba0 (_1.ptx:1192) bra.uni $LDWendi___isnanf_192_1;
GPGPU-Sim PTX:    immediate post dominator      @  PC=0x2040 (_1.ptx:1375) mov.f32 %f394, 0f3f4ccccd;   // 0.8
GPGPU-Sim PTX: 47 (potential) branch divergence @  PC=0x1bd8 (_1.ptx:1202) @%p33 bra $Lt_10_54530;
GPGPU-Sim PTX:    immediate post dominator      @  PC=0x1c20 (_1.ptx:1216) sub.s32 %r64, %r64, 127;
GPGPU-Sim PTX: 48 (potential) branch divergence @  PC=0x1c10 (_1.ptx:1211) bra.uni $Lt_10_54274;
GPGPU-Sim PTX:    immediate post dominator      @  PC=0x1c20 (_1.ptx:1216) sub.s32 %r64, %r64, 127;
GPGPU-Sim PTX: 49 (potential) branch divergence @  PC=0x1c58 (_1.ptx:1224) @!%p34 bra $Lt_10_54786;
GPGPU-Sim PTX:    immediate post dominator      @  PC=0x1c78 (_1.ptx:1232) mov.f32 %f302, 0fbf800000;   // -1
GPGPU-Sim PTX: 50 (potential) branch divergence @  PC=0x1eb0 (_1.ptx:1312) @%p35 bra $Lt_10_55298;
GPGPU-Sim PTX:    immediate post dominator      @  PC=0x1ed8 (_1.ptx:1321) mov.f32 %f367, %f365;
GPGPU-Sim PTX: 51 (potential) branch divergence @  PC=0x1f98 (_1.ptx:1346) @!%p38 bra $Lt_10_55810;
GPGPU-Sim PTX:    immediate post dominator      @  PC=0x1fa8 (_1.ptx:1351) mov.f32 %f284, %f386;
GPGPU-Sim PTX: 52 (potential) branch divergence @  PC=0x2018 (_1.ptx:1365) @%p39 bra $Lt_10_56322;
GPGPU-Sim PTX:    immediate post dominator      @  PC=0x2038 (_1.ptx:1372) mov.f32 %f268, %f284;
GPGPU-Sim PTX: 53 (potential) branch divergence @  PC=0x2158 (_1.ptx:1419) @%p40 bra $L_10_42242;
GPGPU-Sim PTX:    immediate post dominator      @  PC=0x2170 (_1.ptx:1424) sub.s32 %r86, %r24, 1;
GPGPU-Sim PTX: 54 (potential) branch divergence @  PC=0x2168 (_1.ptx:1421) @%p41 bra $L_10_41474;
GPGPU-Sim PTX:    immediate post dominator      @  PC=0x2170 (_1.ptx:1424) sub.s32 %r86, %r24, 1;
GPGPU-Sim PTX: 55 (potential) branch divergence @  PC=0x2190 (_1.ptx:1428) @%p42 bra $Lt_10_56834;
GPGPU-Sim PTX:    immediate post dominator      @  PC=0x2288 (_1.ptx:1464) ld.global.u32 %r92, [%rd4+0];
GPGPU-Sim PTX: 56 (potential) branch divergence @  PC=0x2280 (_1.ptx:1461) @%p43 bra $Lt_10_57346;
GPGPU-Sim PTX:    immediate post dominator      @  PC=0x2288 (_1.ptx:1464) ld.global.u32 %r92, [%rd4+0];
GPGPU-Sim PTX: ... end of reconvergence points for _Z6renderPjP4Nodejjff
GPGPU-Sim PTX: ... done pre-decoding instructions for '_Z6renderPjP4Nodejjff'.
GPGPU-Sim PTX: instruction assembly for function '_ZN4dim3C1Ejjj'...   done.
GPGPU-Sim PTX: finding reconvergence points for '_ZN4dim3C1Ejjj'...
GPGPU-Sim PTX: Finding dominators for '_ZN4dim3C1Ejjj'...
GPGPU-Sim PTX: Finding immediate dominators for '_ZN4dim3C1Ejjj'...
GPGPU-Sim PTX: Finding postdominators for '_ZN4dim3C1Ejjj'...
GPGPU-Sim PTX: Finding immediate postdominators for '_ZN4dim3C1Ejjj'...
GPGPU-Sim PTX: pre-decoding instructions for '_ZN4dim3C1Ejjj'...
GPGPU-Sim PTX: reconvergence points for _ZN4dim3C1Ejjj...
GPGPU-Sim PTX: ... end of reconvergence points for _ZN4dim3C1Ejjj
GPGPU-Sim PTX: ... done pre-decoding instructions for '_ZN4dim3C1Ejjj'.
GPGPU-Sim PTX: finished parsing EMBEDDED .ptx file _1.ptx
Adding _cuobjdump_1.ptx with cubin handle 1
GPGPU-Sim PTX: extracting embedded .ptx to temporary file "_ptx_q1XJ8y"
Running: cat _ptx_q1XJ8y | sed 's/.version 1.5/.version 1.4/' | sed 's/, texmode_independent//' | sed 's/\(\.extern \.const\[1\] .b8 \w\+\)\[\]/\1\[1\]/' | sed 's/const\[.\]/const\[0\]/g' > _ptx2_cqCdFT
GPGPU-Sim PTX: generating ptxinfo using "$CUDA_INSTALL_PATH/bin/ptxas --gpu-name=sm_20 -v _ptx2_cqCdFT --output-file  /dev/null 2> _ptx_q1XJ8yinfo"
GPGPU-Sim PTX: Kernel '_Z6renderPjP4Nodejjff' : regs=45, lmem=4, smem=0, cmem=180
GPGPU-Sim PTX: removing ptxinfo using "rm -f _ptx_q1XJ8y _ptx2_cqCdFT _ptx_q1XJ8yinfo"
GPGPU-Sim PTX: loading globals with explicit initializers... 
GPGPU-Sim PTX: finished loading globals (0 bytes total).
GPGPU-Sim PTX: loading constants with explicit initializers...  done.
GPGPU-Sim PTX: __cudaRegisterVar: hostVar = 0x632880; deviceAddress = MView; deviceName = MView
GPGPU-Sim PTX: __cudaRegisterVar: Registering const memory space of 48 bytes
GPGPU-Sim PTX registering constant MView (48 bytes) to name mapping
GPGPU-Sim PTX: __cudaRegisterVar: hostVar = 0x6328c0; deviceAddress = cnode; deviceName = cnode
GPGPU-Sim PTX: __cudaRegisterVar: Registering const memory space of 160 bytes
GPGPU-Sim PTX registering constant cnode (160 bytes) to name mapping
GPGPU-Sim PTX: cudaMemcpyToSymbol: symbol = 0x6328c0
GPGPU-Sim PTX: starting gpgpu_ptx_sim_memcpy_symbol with hostVar 0x0x6328c0
GPGPU-Sim PTX: gpgpu_ptx_sim_memcpy_symbol: Found PTX symbol w/ hostVar=0x6328c0
GPGPU-Sim PTX: gpgpu_ptx_sim_memcpy_symbol: copying const memory 160 bytes  to  symbol cnode+0 @0x100 ...
GPGPU-Sim PTX: cudaMemcpyToSymbol: symbol = 0x632880
GPGPU-Sim PTX: starting gpgpu_ptx_sim_memcpy_symbol with hostVar 0x0x632880
GPGPU-Sim PTX: gpgpu_ptx_sim_memcpy_symbol: Found PTX symbol w/ hostVar=0x632880
GPGPU-Sim PTX: gpgpu_ptx_sim_memcpy_symbol: copying const memory 48 bytes  to  symbol MView+0 @0x200 ...

GPGPU-Sim PTX: cudaLaunch for 0x0x40d033 (mode=performance simulation) on stream 0
GPGPU-Sim PTX: pushing kernel '_Z6renderPjP4Nodejjff' to stream 0, gridDim= (16,32,1) blockDim = (16,8,1) 
kernel '_Z6renderPjP4Nodejjff' transfer to GPU hardware scheduler
GPGPU-Sim uArch: Shader 1 bind to kernel 1 '_Z6renderPjP4Nodejjff'
GPGPU-Sim uArch: CTA/core = 5, limited by: regs
GPGPU-Sim uArch: core:  1, cta: 0 initialized @(1,0)
GPGPU-Sim uArch: Shader 2 bind to kernel 1 '_Z6renderPjP4Nodejjff'
GPGPU-Sim uArch: core:  2, cta: 0 initialized @(1,0)
GPGPU-Sim uArch: Shader 3 bind to kernel 1 '_Z6renderPjP4Nodejjff'
GPGPU-Sim uArch: core:  3, cta: 0 initialized @(1,0)
GPGPU-Sim uArch: Shader 4 bind to kernel 1 '_Z6renderPjP4Nodejjff'
GPGPU-Sim uArch: core:  4, cta: 0 initialized @(1,0)
GPGPU-Sim uArch: Shader 5 bind to kernel 1 '_Z6renderPjP4Nodejjff'
GPGPU-Sim uArch: core:  5, cta: 0 initialized @(1,0)
GPGPU-Sim uArch: Shader 6 bind to kernel 1 '_Z6renderPjP4Nodejjff'
GPGPU-Sim uArch: core:  6, cta: 0 initialized @(1,0)
GPGPU-Sim uArch: Shader 7 bind to kernel 1 '_Z6renderPjP4Nodejjff'
GPGPU-Sim uArch: core:  7, cta: 0 initialized @(1,0)
GPGPU-Sim uArch: Shader 8 bind to kernel 1 '_Z6renderPjP4Nodejjff'
GPGPU-Sim uArch: core:  8, cta: 0 initialized @(1,0)
GPGPU-Sim uArch: Shader 9 bind to kernel 1 '_Z6renderPjP4Nodejjff'
GPGPU-Sim uArch: core:  9, cta: 0 initialized @(1,0)
GPGPU-Sim uArch: Shader 10 bind to kernel 1 '_Z6renderPjP4Nodejjff'
GPGPU-Sim uArch: core: 10, cta: 0 initialized @(1,0)
GPGPU-Sim uArch: Shader 11 bind to kernel 1 '_Z6renderPjP4Nodejjff'
GPGPU-Sim uArch: core: 11, cta: 0 initialized @(1,0)
GPGPU-Sim uArch: Shader 12 bind to kernel 1 '_Z6renderPjP4Nodejjff'
GPGPU-Sim uArch: core: 12, cta: 0 initialized @(1,0)
GPGPU-Sim uArch: Shader 13 bind to kernel 1 '_Z6renderPjP4Nodejjff'
GPGPU-Sim uArch: core: 13, cta: 0 initialized @(1,0)
GPGPU-Sim uArch: Shader 14 bind to kernel 1 '_Z6renderPjP4Nodejjff'
GPGPU-Sim uArch: core: 14, cta: 0 initialized @(1,0)
GPGPU-Sim uArch: Shader 0 bind to kernel 1 '_Z6renderPjP4Nodejjff'
GPGPU-Sim uArch: core:  0, cta: 0 initialized @(1,0)
GPGPU-Sim uArch: core:  1, cta: 1 initialized @(2,0)
GPGPU-Sim uArch: core:  2, cta: 1 initialized @(2,0)
GPGPU-Sim uArch: core:  3, cta: 1 initialized @(2,0)
GPGPU-Sim uArch: core:  4, cta: 1 initialized @(2,0)
GPGPU-Sim uArch: core:  5, cta: 1 initialized @(2,0)
GPGPU-Sim uArch: core:  6, cta: 1 initialized @(2,0)
GPGPU-Sim uArch: core:  7, cta: 1 initialized @(2,0)
GPGPU-Sim uArch: core:  8, cta: 1 initialized @(2,0)
GPGPU-Sim uArch: core:  9, cta: 1 initialized @(2,0)
GPGPU-Sim uArch: core: 10, cta: 1 initialized @(2,0)
GPGPU-Sim uArch: core: 11, cta: 1 initialized @(2,0)
GPGPU-Sim uArch: core: 12, cta: 1 initialized @(2,0)
GPGPU-Sim uArch: core: 13, cta: 1 initialized @(2,0)
GPGPU-Sim uArch: core: 14, cta: 1 initialized @(2,0)
GPGPU-Sim uArch: core:  0, cta: 1 initialized @(2,0)
GPGPU-Sim uArch: core:  1, cta: 2 initialized @(3,0)
GPGPU-Sim uArch: core:  2, cta: 2 initialized @(3,0)
GPGPU-Sim uArch: core:  3, cta: 2 initialized @(3,0)
GPGPU-Sim uArch: core:  4, cta: 2 initialized @(3,0)
GPGPU-Sim uArch: core:  5, cta: 2 initialized @(3,0)
GPGPU-Sim uArch: core:  6, cta: 2 initialized @(3,0)
GPGPU-Sim uArch: core:  7, cta: 2 initialized @(3,0)
GPGPU-Sim uArch: core:  8, cta: 2 initialized @(3,0)
GPGPU-Sim uArch: core:  9, cta: 2 initialized @(3,0)
GPGPU-Sim uArch: core: 10, cta: 2 initialized @(3,0)
GPGPU-Sim uArch: core: 11, cta: 2 initialized @(3,0)
GPGPU-Sim uArch: core: 12, cta: 2 initialized @(3,0)
GPGPU-Sim uArch: core: 13, cta: 2 initialized @(3,0)
GPGPU-Sim uArch: core: 14, cta: 2 initialized @(3,0)
GPGPU-Sim uArch: core:  0, cta: 2 initialized @(3,0)
GPGPU-Sim uArch: core:  1, cta: 3 initialized @(4,0)
GPGPU-Sim uArch: core:  2, cta: 3 initialized @(4,0)
GPGPU-Sim uArch: core:  3, cta: 3 initialized @(4,0)
GPGPU-Sim uArch: core:  4, cta: 3 initialized @(4,0)
GPGPU-Sim uArch: core:  5, cta: 3 initialized @(4,0)
GPGPU-Sim uArch: core:  6, cta: 3 initialized @(4,0)
GPGPU-Sim uArch: core:  7, cta: 3 initialized @(4,0)
GPGPU-Sim uArch: core:  8, cta: 3 initialized @(4,0)
GPGPU-Sim uArch: core:  9, cta: 3 initialized @(4,0)
GPGPU-Sim uArch: core: 10, cta: 3 initialized @(4,0)
GPGPU-Sim uArch: core: 11, cta: 3 initialized @(4,0)
GPGPU-Sim uArch: core: 12, cta: 3 initialized @(4,0)
GPGPU-Sim uArch: core: 13, cta: 3 initialized @(4,0)
GPGPU-Sim uArch: core: 14, cta: 3 initialized @(4,0)
GPGPU-Sim uArch: core:  0, cta: 3 initialized @(4,0)
GPGPU-Sim uArch: core:  1, cta: 4 initialized @(5,0)
GPGPU-Sim uArch: core:  2, cta: 4 initialized @(5,0)
GPGPU-Sim uArch: core:  3, cta: 4 initialized @(5,0)
GPGPU-Sim uArch: core:  4, cta: 4 initialized @(5,0)
GPGPU-Sim uArch: core:  5, cta: 4 initialized @(5,0)
GPGPU-Sim uArch: core:  6, cta: 4 initialized @(5,0)
GPGPU-Sim uArch: core:  7, cta: 4 initialized @(5,0)
GPGPU-Sim uArch: core:  8, cta: 4 initialized @(5,0)
GPGPU-Sim uArch: core:  9, cta: 4 initialized @(5,0)
GPGPU-Sim uArch: core: 10, cta: 4 initialized @(5,0)
GPGPU-Sim uArch: core: 11, cta: 4 initialized @(5,0)
GPGPU-Sim uArch: core: 12, cta: 4 initialized @(5,0)
GPGPU-Sim uArch: core: 13, cta: 4 initialized @(5,0)
GPGPU-Sim uArch: core: 14, cta: 4 initialized @(5,0)
GPGPU-Sim uArch: core:  0, cta: 4 initialized @(5,0)
GPGPU-Sim uArch: cycles simulated: 500  inst.: 36032 (ipc=72.1) sim_rate=18016 (inst/sec) elapsed = 0:0:00:02 / Tue Apr 16 16:53:34 2019
GPGPU-Sim uArch: cycles simulated: 1500  inst.: 71296 (ipc=47.5) sim_rate=23765 (inst/sec) elapsed = 0:0:00:03 / Tue Apr 16 16:53:35 2019
GPGPU-Sim PTX: 100000 instructions simulated : ctaid=(7,0,0) tid=(15,1,0)
GPGPU-Sim uArch: cycles simulated: 2500  inst.: 110240 (ipc=44.1) sim_rate=27560 (inst/sec) elapsed = 0:0:00:04 / Tue Apr 16 16:53:36 2019
GPGPU-Sim uArch: cycles simulated: 3500  inst.: 166112 (ipc=47.5) sim_rate=33222 (inst/sec) elapsed = 0:0:00:05 / Tue Apr 16 16:53:37 2019
GPGPU-Sim PTX: 200000 instructions simulated : ctaid=(7,3,0) tid=(15,5,0)
GPGPU-Sim uArch: cycles simulated: 4000  inst.: 224608 (ipc=56.2) sim_rate=37434 (inst/sec) elapsed = 0:0:00:06 / Tue Apr 16 16:53:38 2019
GPGPU-Sim PTX: 300000 instructions simulated : ctaid=(2,0,0) tid=(15,1,0)
GPGPU-Sim uArch: cycles simulated: 5000  inst.: 301184 (ipc=60.2) sim_rate=43026 (inst/sec) elapsed = 0:0:00:07 / Tue Apr 16 16:53:39 2019
GPGPU-Sim uArch: cycles simulated: 5500  inst.: 363424 (ipc=66.1) sim_rate=40380 (inst/sec) elapsed = 0:0:00:09 / Tue Apr 16 16:53:41 2019
GPGPU-Sim PTX: 400000 instructions simulated : ctaid=(4,0,0) tid=(15,7,0)
GPGPU-Sim uArch: cycles simulated: 6000  inst.: 486400 (ipc=81.1) sim_rate=48640 (inst/sec) elapsed = 0:0:00:10 / Tue Apr 16 16:53:42 2019
GPGPU-Sim PTX: 500000 instructions simulated : ctaid=(14,1,0) tid=(15,5,0)
GPGPU-Sim PTX: 600000 instructions simulated : ctaid=(14,3,0) tid=(15,5,0)
GPGPU-Sim uArch: cycles simulated: 6500  inst.: 612640 (ipc=94.3) sim_rate=51053 (inst/sec) elapsed = 0:0:00:12 / Tue Apr 16 16:53:44 2019
GPGPU-Sim PTX: 700000 instructions simulated : ctaid=(7,4,0) tid=(15,1,0)
GPGPU-Sim uArch: cycles simulated: 7000  inst.: 732160 (ipc=104.6) sim_rate=56320 (inst/sec) elapsed = 0:0:00:13 / Tue Apr 16 16:53:45 2019
GPGPU-Sim uArch: cycles simulated: 7500  inst.: 780736 (ipc=104.1) sim_rate=55766 (inst/sec) elapsed = 0:0:00:14 / Tue Apr 16 16:53:46 2019
GPGPU-Sim PTX: 800000 instructions simulated : ctaid=(1,0,0) tid=(15,7,0)
GPGPU-Sim PTX: 900000 instructions simulated : ctaid=(5,1,0) tid=(15,3,0)
GPGPU-Sim uArch: cycles simulated: 8000  inst.: 926272 (ipc=115.8) sim_rate=61751 (inst/sec) elapsed = 0:0:00:15 / Tue Apr 16 16:53:47 2019
GPGPU-Sim PTX: 1000000 instructions simulated : ctaid=(4,2,0) tid=(15,7,0)
GPGPU-Sim PTX: 1100000 instructions simulated : ctaid=(13,2,0) tid=(15,7,0)
GPGPU-Sim uArch: cycles simulated: 8500  inst.: 1091968 (ipc=128.5) sim_rate=68248 (inst/sec) elapsed = 0:0:00:16 / Tue Apr 16 16:53:48 2019
GPGPU-Sim PTX: 1200000 instructions simulated : ctaid=(4,2,0) tid=(15,5,0)
GPGPU-Sim uArch: cycles simulated: 9000  inst.: 1272192 (ipc=141.4) sim_rate=74834 (inst/sec) elapsed = 0:0:00:17 / Tue Apr 16 16:53:49 2019
GPGPU-Sim PTX: 1300000 instructions simulated : ctaid=(14,3,0) tid=(15,3,0)
GPGPU-Sim PTX: 1400000 instructions simulated : ctaid=(6,0,0) tid=(15,7,0)
GPGPU-Sim PTX: 1500000 instructions simulated : ctaid=(7,3,0) tid=(15,1,0)
GPGPU-Sim uArch: cycles simulated: 9500  inst.: 1536896 (ipc=161.8) sim_rate=80889 (inst/sec) elapsed = 0:0:00:19 / Tue Apr 16 16:53:51 2019
GPGPU-Sim PTX: 1600000 instructions simulated : ctaid=(13,3,0) tid=(15,1,0)
GPGPU-Sim PTX: 1700000 instructions simulated : ctaid=(0,1,0) tid=(15,3,0)
GPGPU-Sim PTX: 1800000 instructions simulated : ctaid=(13,1,0) tid=(15,1,0)
GPGPU-Sim uArch: cycles simulated: 10000  inst.: 1799520 (ipc=180.0) sim_rate=85691 (inst/sec) elapsed = 0:0:00:21 / Tue Apr 16 16:53:53 2019
GPGPU-Sim PTX: 1900000 instructions simulated : ctaid=(8,2,0) tid=(15,5,0)
GPGPU-Sim PTX: 2000000 instructions simulated : ctaid=(12,0,0) tid=(15,7,0)
GPGPU-Sim PTX: 2100000 instructions simulated : ctaid=(8,1,0) tid=(15,5,0)
GPGPU-Sim PTX: 2200000 instructions simulated : ctaid=(3,2,0) tid=(15,5,0)
GPGPU-Sim uArch: cycles simulated: 10500  inst.: 2199360 (ipc=209.5) sim_rate=95624 (inst/sec) elapsed = 0:0:00:23 / Tue Apr 16 16:53:55 2019
GPGPU-Sim PTX: 2300000 instructions simulated : ctaid=(0,1,0) tid=(15,5,0)
GPGPU-Sim PTX: 2400000 instructions simulated : ctaid=(1,4,0) tid=(15,5,0)
GPGPU-Sim PTX: 2500000 instructions simulated : ctaid=(4,3,0) tid=(15,3,0)
GPGPU-Sim uArch: cycles simulated: 11000  inst.: 2521728 (ipc=229.2) sim_rate=105072 (inst/sec) elapsed = 0:0:00:24 / Tue Apr 16 16:53:56 2019
GPGPU-Sim PTX: 2600000 instructions simulated : ctaid=(5,3,0) tid=(15,5,0)
GPGPU-Sim PTX: 2700000 instructions simulated : ctaid=(11,0,0) tid=(15,1,0)
GPGPU-Sim PTX: 2800000 instructions simulated : ctaid=(10,0,0) tid=(15,7,0)
GPGPU-Sim PTX: 2900000 instructions simulated : ctaid=(13,2,0) tid=(15,3,0)
GPGPU-Sim uArch: cycles simulated: 11500  inst.: 2899488 (ipc=252.1) sim_rate=111518 (inst/sec) elapsed = 0:0:00:26 / Tue Apr 16 16:53:58 2019
GPGPU-Sim PTX: 3000000 instructions simulated : ctaid=(6,1,0) tid=(15,5,0)
GPGPU-Sim PTX: 3100000 instructions simulated : ctaid=(3,4,0) tid=(15,1,0)
GPGPU-Sim PTX: 3200000 instructions simulated : ctaid=(5,1,0) tid=(15,3,0)
GPGPU-Sim uArch: cycles simulated: 12000  inst.: 3198432 (ipc=266.5) sim_rate=114229 (inst/sec) elapsed = 0:0:00:28 / Tue Apr 16 16:54:00 2019
GPGPU-Sim PTX: 3300000 instructions simulated : ctaid=(11,3,0) tid=(15,7,0)
GPGPU-Sim PTX: 3400000 instructions simulated : ctaid=(0,4,0) tid=(15,7,0)
GPGPU-Sim uArch: cycles simulated: 12500  inst.: 3382176 (ipc=270.6) sim_rate=109102 (inst/sec) elapsed = 0:0:00:31 / Tue Apr 16 16:54:03 2019
GPGPU-Sim PTX: 3500000 instructions simulated : ctaid=(11,0,0) tid=(15,3,0)
GPGPU-Sim PTX: 3600000 instructions simulated : ctaid=(14,0,0) tid=(15,3,0)
GPGPU-Sim uArch: cycles simulated: 13000  inst.: 3551040 (ipc=273.2) sim_rate=110970 (inst/sec) elapsed = 0:0:00:32 / Tue Apr 16 16:54:04 2019
GPGPU-Sim PTX: 3700000 instructions simulated : ctaid=(10,3,0) tid=(15,5,0)
GPGPU-Sim uArch: cycles simulated: 13500  inst.: 3667936 (ipc=271.7) sim_rate=111149 (inst/sec) elapsed = 0:0:00:33 / Tue Apr 16 16:54:05 2019
GPGPU-Sim PTX: 3800000 instructions simulated : ctaid=(2,0,0) tid=(15,7,0)
GPGPU-Sim PTX: 3900000 instructions simulated : ctaid=(4,2,0) tid=(15,1,0)
GPGPU-Sim uArch: cycles simulated: 14000  inst.: 3883104 (ipc=277.4) sim_rate=110945 (inst/sec) elapsed = 0:0:00:35 / Tue Apr 16 16:54:07 2019
GPGPU-Sim PTX: 4000000 instructions simulated : ctaid=(7,4,0) tid=(15,3,0)
GPGPU-Sim PTX: 4100000 instructions simulated : ctaid=(3,2,0) tid=(15,3,0)
GPGPU-Sim uArch: cycles simulated: 14500  inst.: 4012800 (ipc=276.7) sim_rate=111466 (inst/sec) elapsed = 0:0:00:36 / Tue Apr 16 16:54:08 2019
GPGPU-Sim PTX: 4200000 instructions simulated : ctaid=(1,4,0) tid=(15,5,0)
GPGPU-Sim PTX: 4300000 instructions simulated : ctaid=(11,2,0) tid=(15,7,0)
GPGPU-Sim PTX: 4400000 instructions simulated : ctaid=(1,4,0) tid=(15,1,0)
GPGPU-Sim uArch: cycles simulated: 15500  inst.: 4359968 (ipc=281.3) sim_rate=114736 (inst/sec) elapsed = 0:0:00:38 / Tue Apr 16 16:54:10 2019
GPGPU-Sim PTX: 4500000 instructions simulated : ctaid=(8,3,0) tid=(15,3,0)
GPGPU-Sim PTX: 4600000 instructions simulated : ctaid=(3,2,0) tid=(12,0,0)
GPGPU-Sim PTX: 4700000 instructions simulated : ctaid=(8,0,0) tid=(6,2,0)
GPGPU-Sim uArch: cycles simulated: 16000  inst.: 4590336 (ipc=286.9) sim_rate=117700 (inst/sec) elapsed = 0:0:00:39 / Tue Apr 16 16:54:11 2019
GPGPU-Sim PTX: 4800000 instructions simulated : ctaid=(7,0,0) tid=(15,2,0)
GPGPU-Sim PTX: 4900000 instructions simulated : ctaid=(8,2,0) tid=(15,2,0)
GPGPU-Sim PTX: 5000000 instructions simulated : ctaid=(1,0,0) tid=(15,0,0)
GPGPU-Sim PTX: 5100000 instructions simulated : ctaid=(6,3,0) tid=(15,2,0)
GPGPU-Sim uArch: cycles simulated: 16500  inst.: 4982224 (ipc=302.0) sim_rate=121517 (inst/sec) elapsed = 0:0:00:41 / Tue Apr 16 16:54:13 2019
GPGPU-Sim PTX: 5200000 instructions simulated : ctaid=(2,0,0) tid=(15,4,0)
GPGPU-Sim PTX: 5300000 instructions simulated : ctaid=(6,3,0) tid=(15,0,0)
GPGPU-Sim PTX: 5400000 instructions simulated : ctaid=(8,2,0) tid=(8,2,0)
GPGPU-Sim PTX: 5500000 instructions simulated : ctaid=(3,3,0) tid=(9,0,0)
GPGPU-Sim uArch: cycles simulated: 17000  inst.: 5380171 (ipc=316.5) sim_rate=125120 (inst/sec) elapsed = 0:0:00:43 / Tue Apr 16 16:54:15 2019
GPGPU-Sim PTX: 5600000 instructions simulated : ctaid=(0,4,0) tid=(3,1,0)
GPGPU-Sim PTX: 5700000 instructions simulated : ctaid=(8,0,0) tid=(5,7,0)
GPGPU-Sim PTX: 5800000 instructions simulated : ctaid=(2,3,0) tid=(4,3,0)
GPGPU-Sim uArch: cycles simulated: 17500  inst.: 5708264 (ipc=326.2) sim_rate=124092 (inst/sec) elapsed = 0:0:00:46 / Tue Apr 16 16:54:18 2019
GPGPU-Sim PTX: 5900000 instructions simulated : ctaid=(12,1,0) tid=(7,5,0)
GPGPU-Sim PTX: 6000000 instructions simulated : ctaid=(14,3,0) tid=(15,6,0)
GPGPU-Sim PTX: 6100000 instructions simulated : ctaid=(10,4,0) tid=(11,1,0)
GPGPU-Sim uArch: cycles simulated: 18000  inst.: 5948100 (ipc=330.4) sim_rate=126555 (inst/sec) elapsed = 0:0:00:47 / Tue Apr 16 16:54:19 2019
GPGPU-Sim PTX: 6200000 instructions simulated : ctaid=(2,1,0) tid=(11,3,0)
GPGPU-Sim uArch: cycles simulated: 18500  inst.: 6114308 (ipc=330.5) sim_rate=127381 (inst/sec) elapsed = 0:0:00:48 / Tue Apr 16 16:54:20 2019
GPGPU-Sim PTX: 6300000 instructions simulated : ctaid=(11,2,0) tid=(11,1,0)
GPGPU-Sim uArch: cycles simulated: 19000  inst.: 6157444 (ipc=324.1) sim_rate=125662 (inst/sec) elapsed = 0:0:00:49 / Tue Apr 16 16:54:21 2019
GPGPU-Sim PTX: 6400000 instructions simulated : ctaid=(8,2,0) tid=(11,1,0)
GPGPU-Sim uArch: cycles simulated: 19500  inst.: 6240100 (ipc=320.0) sim_rate=124802 (inst/sec) elapsed = 0:0:00:50 / Tue Apr 16 16:54:22 2019
GPGPU-Sim PTX: 6500000 instructions simulated : ctaid=(14,2,0) tid=(6,2,0)
GPGPU-Sim PTX: 6600000 instructions simulated : ctaid=(1,4,0) tid=(11,3,0)
GPGPU-Sim PTX: 6700000 instructions simulated : ctaid=(11,3,0) tid=(11,5,0)
GPGPU-Sim uArch: cycles simulated: 20500  inst.: 6576356 (ipc=320.8) sim_rate=126468 (inst/sec) elapsed = 0:0:00:52 / Tue Apr 16 16:54:24 2019
GPGPU-Sim PTX: 6800000 instructions simulated : ctaid=(3,0,0) tid=(11,1,0)
GPGPU-Sim PTX: 6900000 instructions simulated : ctaid=(14,0,0) tid=(11,3,0)
GPGPU-Sim uArch: cycles simulated: 21000  inst.: 6796644 (ipc=323.6) sim_rate=128238 (inst/sec) elapsed = 0:0:00:53 / Tue Apr 16 16:54:25 2019
GPGPU-Sim PTX: 7000000 instructions simulated : ctaid=(7,4,0) tid=(11,1,0)
GPGPU-Sim PTX: 7100000 instructions simulated : ctaid=(13,1,0) tid=(11,7,0)
GPGPU-Sim uArch: cycles simulated: 21500  inst.: 6964260 (ipc=323.9) sim_rate=128967 (inst/sec) elapsed = 0:0:00:54 / Tue Apr 16 16:54:26 2019
GPGPU-Sim PTX: 7200000 instructions simulated : ctaid=(9,2,0) tid=(11,5,0)
GPGPU-Sim uArch: cycles simulated: 22000  inst.: 7102468 (ipc=322.8) sim_rate=129135 (inst/sec) elapsed = 0:0:00:55 / Tue Apr 16 16:54:27 2019
GPGPU-Sim PTX: 7300000 instructions simulated : ctaid=(4,2,0) tid=(11,5,0)
GPGPU-Sim PTX: 7400000 instructions simulated : ctaid=(4,2,0) tid=(11,3,0)
GPGPU-Sim PTX: 7500000 instructions simulated : ctaid=(0,2,0) tid=(11,3,0)
GPGPU-Sim uArch: cycles simulated: 22500  inst.: 7301316 (ipc=324.5) sim_rate=130380 (inst/sec) elapsed = 0:0:00:56 / Tue Apr 16 16:54:28 2019
GPGPU-Sim PTX: 7600000 instructions simulated : ctaid=(9,0,0) tid=(11,1,0)
GPGPU-Sim uArch: cycles simulated: 23000  inst.: 7467972 (ipc=324.7) sim_rate=131017 (inst/sec) elapsed = 0:0:00:57 / Tue Apr 16 16:54:29 2019
GPGPU-Sim PTX: 7700000 instructions simulated : ctaid=(10,3,0) tid=(11,5,0)
GPGPU-Sim PTX: 7800000 instructions simulated : ctaid=(9,3,0) tid=(11,3,0)
GPGPU-Sim uArch: cycles simulated: 23500  inst.: 7650180 (ipc=325.5) sim_rate=129664 (inst/sec) elapsed = 0:0:00:59 / Tue Apr 16 16:54:31 2019
GPGPU-Sim PTX: 7900000 instructions simulated : ctaid=(13,1,0) tid=(11,3,0)
GPGPU-Sim PTX: 8000000 instructions simulated : ctaid=(12,0,0) tid=(11,3,0)
GPGPU-Sim uArch: cycles simulated: 24000  inst.: 7829156 (ipc=326.2) sim_rate=130485 (inst/sec) elapsed = 0:0:01:00 / Tue Apr 16 16:54:32 2019
GPGPU-Sim PTX: 8100000 instructions simulated : ctaid=(0,1,0) tid=(11,3,0)
GPGPU-Sim PTX: 8200000 instructions simulated : ctaid=(1,0,0) tid=(11,5,0)
GPGPU-Sim uArch: cycles simulated: 24500  inst.: 8009572 (ipc=326.9) sim_rate=131304 (inst/sec) elapsed = 0:0:01:01 / Tue Apr 16 16:54:33 2019
GPGPU-Sim PTX: 8300000 instructions simulated : ctaid=(11,3,0) tid=(11,5,0)
GPGPU-Sim PTX: 8400000 instructions simulated : ctaid=(8,3,0) tid=(11,1,0)
GPGPU-Sim PTX: 8500000 instructions simulated : ctaid=(6,3,0) tid=(11,1,0)
GPGPU-Sim uArch: cycles simulated: 25000  inst.: 8293700 (ipc=331.7) sim_rate=133769 (inst/sec) elapsed = 0:0:01:02 / Tue Apr 16 16:54:34 2019
GPGPU-Sim PTX: 8600000 instructions simulated : ctaid=(11,1,0) tid=(11,5,0)
GPGPU-Sim PTX: 8700000 instructions simulated : ctaid=(2,0,0) tid=(15,4,0)
GPGPU-Sim PTX: 8800000 instructions simulated : ctaid=(5,1,0) tid=(13,6,0)
GPGPU-Sim PTX: 8900000 instructions simulated : ctaid=(15,1,0) tid=(11,1,0)
GPGPU-Sim uArch: cycles simulated: 25500  inst.: 8683556 (ipc=340.5) sim_rate=133593 (inst/sec) elapsed = 0:0:01:05 / Tue Apr 16 16:54:37 2019
GPGPU-Sim PTX: 9000000 instructions simulated : ctaid=(5,0,0) tid=(0,7,0)
GPGPU-Sim PTX: 9100000 instructions simulated : ctaid=(14,3,0) tid=(14,0,0)
GPGPU-Sim PTX: 9200000 instructions simulated : ctaid=(12,1,0) tid=(5,2,0)
GPGPU-Sim PTX: 9300000 instructions simulated : ctaid=(1,2,0) tid=(7,7,0)
GPGPU-Sim uArch: cycles simulated: 26000  inst.: 9084847 (ipc=349.4) sim_rate=135594 (inst/sec) elapsed = 0:0:01:07 / Tue Apr 16 16:54:39 2019
GPGPU-Sim PTX: 9400000 instructions simulated : ctaid=(6,0,0) tid=(9,5,0)
GPGPU-Sim PTX: 9500000 instructions simulated : ctaid=(10,4,0) tid=(10,4,0)
GPGPU-Sim PTX: 9600000 instructions simulated : ctaid=(0,4,0) tid=(10,0,0)
GPGPU-Sim PTX: 9700000 instructions simulated : ctaid=(6,0,0) tid=(8,0,0)
GPGPU-Sim uArch: cycles simulated: 26500  inst.: 9481321 (ipc=357.8) sim_rate=137410 (inst/sec) elapsed = 0:0:01:09 / Tue Apr 16 16:54:41 2019
GPGPU-Sim PTX: 9800000 instructions simulated : ctaid=(5,0,0) tid=(5,2,0)
GPGPU-Sim PTX: 9900000 instructions simulated : ctaid=(0,3,0) tid=(15,7,0)
GPGPU-Sim PTX: 10000000 instructions simulated : ctaid=(4,4,0) tid=(4,2,0)
GPGPU-Sim uArch: cycles simulated: 27000  inst.: 9748445 (ipc=361.1) sim_rate=137302 (inst/sec) elapsed = 0:0:01:11 / Tue Apr 16 16:54:43 2019
GPGPU-Sim PTX: 10100000 instructions simulated : ctaid=(13,2,0) tid=(13,1,0)
GPGPU-Sim uArch: cycles simulated: 27500  inst.: 9860060 (ipc=358.5) sim_rate=136945 (inst/sec) elapsed = 0:0:01:12 / Tue Apr 16 16:54:44 2019
GPGPU-Sim PTX: 10200000 instructions simulated : ctaid=(7,3,0) tid=(13,2,0)
GPGPU-Sim uArch: cycles simulated: 28000  inst.: 9968355 (ipc=356.0) sim_rate=136552 (inst/sec) elapsed = 0:0:01:13 / Tue Apr 16 16:54:45 2019
GPGPU-Sim PTX: 10300000 instructions simulated : ctaid=(10,1,0) tid=(14,6,0)
GPGPU-Sim PTX: 10400000 instructions simulated : ctaid=(4,0,0) tid=(11,3,0)
GPGPU-Sim uArch: cycles simulated: 28500  inst.: 10139780 (ipc=355.8) sim_rate=135197 (inst/sec) elapsed = 0:0:01:15 / Tue Apr 16 16:54:47 2019
GPGPU-Sim uArch: Shader 0 finished CTA #1 (28531,0), 4 CTAs running
GPGPU-Sim uArch: core:  0, cta: 1 initialized @(28532,0)
GPGPU-Sim uArch: Shader 14 finished CTA #0 (28533,0), 4 CTAs running
GPGPU-Sim uArch: core: 14, cta: 0 initialized @(28534,0)
GPGPU-Sim uArch: Shader 5 finished CTA #2 (28551,0), 4 CTAs running
GPGPU-Sim uArch: core:  5, cta: 2 initialized @(28552,0)
GPGPU-Sim uArch: Shader 0 finished CTA #0 (28585,0), 4 CTAs running
GPGPU-Sim uArch: core:  0, cta: 0 initialized @(28586,0)
GPGPU-Sim uArch: Shader 1 finished CTA #1 (28589,0), 4 CTAs running
GPGPU-Sim uArch: core:  1, cta: 1 initialized @(28590,0)
GPGPU-Sim uArch: Shader 0 finished CTA #2 (28609,0), 4 CTAs running
GPGPU-Sim uArch: core:  0, cta: 2 initialized @(28610,0)
GPGPU-Sim uArch: Shader 0 finished CTA #3 (28618,0), 4 CTAs running
GPGPU-Sim uArch: core:  0, cta: 3 initialized @(28619,0)
GPGPU-Sim uArch: Shader 2 finished CTA #1 (28627,0), 4 CTAs running
GPGPU-Sim uArch: core:  2, cta: 1 initialized @(28628,0)
GPGPU-Sim uArch: Shader 0 finished CTA #4 (28633,0), 4 CTAs running
GPGPU-Sim uArch: core:  0, cta: 4 initialized @(28634,0)
GPGPU-Sim uArch: Shader 2 finished CTA #2 (28635,0), 4 CTAs running
GPGPU-Sim uArch: core:  2, cta: 2 initialized @(28636,0)
GPGPU-Sim uArch: Shader 1 finished CTA #0 (28653,0), 4 CTAs running
GPGPU-Sim uArch: core:  1, cta: 0 initialized @(28654,0)
GPGPU-Sim uArch: Shader 5 finished CTA #3 (28662,0), 4 CTAs running
GPGPU-Sim uArch: core:  5, cta: 3 initialized @(28663,0)
GPGPU-Sim uArch: Shader 8 finished CTA #3 (28673,0), 4 CTAs running
GPGPU-Sim uArch: core:  8, cta: 3 initialized @(28674,0)
GPGPU-Sim uArch: Shader 1 finished CTA #3 (28675,0), 4 CTAs running
GPGPU-Sim uArch: core:  1, cta: 3 initialized @(28676,0)
GPGPU-Sim uArch: Shader 4 finished CTA #2 (28677,0), 4 CTAs running
GPGPU-Sim uArch: core:  4, cta: 2 initialized @(28678,0)
GPGPU-Sim uArch: Shader 2 finished CTA #0 (28681,0), 4 CTAs running
GPGPU-Sim uArch: core:  2, cta: 0 initialized @(28682,0)
GPGPU-Sim uArch: Shader 1 finished CTA #2 (28693,0), 4 CTAs running
GPGPU-Sim uArch: core:  1, cta: 2 initialized @(28694,0)
GPGPU-Sim uArch: Shader 5 finished CTA #4 (28700,0), 4 CTAs running
GPGPU-Sim uArch: core:  5, cta: 4 initialized @(28701,0)
GPGPU-Sim uArch: Shader 1 finished CTA #4 (28701,0), 4 CTAs running
GPGPU-Sim uArch: core:  1, cta: 4 initialized @(28702,0)
GPGPU-Sim uArch: Shader 8 finished CTA #2 (28709,0), 4 CTAs running
GPGPU-Sim uArch: core:  8, cta: 2 initialized @(28710,0)
GPGPU-Sim uArch: Shader 2 finished CTA #3 (28725,0), 4 CTAs running
GPGPU-Sim uArch: core:  2, cta: 3 initialized @(28726,0)
GPGPU-Sim uArch: Shader 2 finished CTA #4 (28737,0), 4 CTAs running
GPGPU-Sim uArch: Shader 7 finished CTA #3 (28737,0), 4 CTAs running
GPGPU-Sim uArch: core:  7, cta: 3 initialized @(28738,0)
GPGPU-Sim uArch: core:  2, cta: 4 initialized @(28738,0)
GPGPU-Sim uArch: Shader 8 finished CTA #4 (28745,0), 4 CTAs running
GPGPU-Sim uArch: core:  8, cta: 4 initialized @(28746,0)
GPGPU-Sim uArch: Shader 9 finished CTA #3 (28757,0), 4 CTAs running
GPGPU-Sim uArch: core:  9, cta: 3 initialized @(28758,0)
GPGPU-Sim uArch: Shader 4 finished CTA #1 (28759,0), 4 CTAs running
GPGPU-Sim uArch: core:  4, cta: 1 initialized @(28760,0)
GPGPU-Sim uArch: Shader 3 finished CTA #0 (28767,0), 4 CTAs running
GPGPU-Sim uArch: core:  3, cta: 0 initialized @(28768,0)
GPGPU-Sim uArch: Shader 7 finished CTA #4 (28780,0), 4 CTAs running
GPGPU-Sim uArch: core:  7, cta: 4 initialized @(28781,0)
GPGPU-Sim uArch: Shader 4 finished CTA #3 (28786,0), 4 CTAs running
GPGPU-Sim uArch: core:  4, cta: 3 initialized @(28787,0)
GPGPU-Sim uArch: Shader 6 finished CTA #2 (28787,0), 4 CTAs running
GPGPU-Sim uArch: core:  6, cta: 2 initialized @(28788,0)
GPGPU-Sim uArch: Shader 9 finished CTA #4 (28789,0), 4 CTAs running
GPGPU-Sim uArch: core:  9, cta: 4 initialized @(28790,0)
GPGPU-Sim uArch: Shader 3 finished CTA #1 (28805,0), 4 CTAs running
GPGPU-Sim uArch: core:  3, cta: 1 initialized @(28806,0)
GPGPU-Sim uArch: Shader 6 finished CTA #3 (28809,0), 4 CTAs running
GPGPU-Sim uArch: core:  6, cta: 3 initialized @(28810,0)
GPGPU-Sim uArch: Shader 6 finished CTA #4 (28817,0), 4 CTAs running
GPGPU-Sim uArch: core:  6, cta: 4 initialized @(28818,0)
GPGPU-Sim PTX: 10500000 instructions simulated : ctaid=(12,5,0) tid=(4,4,0)
GPGPU-Sim uArch: Shader 4 finished CTA #4 (28824,0), 4 CTAs running
GPGPU-Sim uArch: core:  4, cta: 4 initialized @(28825,0)
GPGPU-Sim uArch: Shader 3 finished CTA #2 (28837,0), 4 CTAs running
GPGPU-Sim uArch: core:  3, cta: 2 initialized @(28838,0)
GPGPU-Sim uArch: Shader 3 finished CTA #3 (28853,0), 4 CTAs running
GPGPU-Sim uArch: core:  3, cta: 3 initialized @(28854,0)
GPGPU-Sim uArch: Shader 3 finished CTA #4 (28861,0), 4 CTAs running
GPGPU-Sim uArch: core:  3, cta: 4 initialized @(28862,0)
GPGPU-Sim uArch: Shader 10 finished CTA #4 (28945,0), 4 CTAs running
GPGPU-Sim uArch: core: 10, cta: 4 initialized @(28946,0)
GPGPU-Sim uArch: cycles simulated: 29000  inst.: 10289074 (ipc=354.8) sim_rate=133624 (inst/sec) elapsed = 0:0:01:17 / Tue Apr 16 16:54:49 2019
GPGPU-Sim PTX: 10600000 instructions simulated : ctaid=(9,5,0) tid=(14,0,0)
GPGPU-Sim PTX: 10700000 instructions simulated : ctaid=(8,3,0) tid=(11,6,0)
GPGPU-Sim uArch: cycles simulated: 29500  inst.: 10435936 (ipc=353.8) sim_rate=130449 (inst/sec) elapsed = 0:0:01:20 / Tue Apr 16 16:54:52 2019
GPGPU-Sim PTX: 10800000 instructions simulated : ctaid=(6,0,0) tid=(3,0,0)
GPGPU-Sim uArch: cycles simulated: 30000  inst.: 10603012 (ipc=353.4) sim_rate=127747 (inst/sec) elapsed = 0:0:01:23 / Tue Apr 16 16:54:55 2019
GPGPU-Sim PTX: 10900000 instructions simulated : ctaid=(10,6,0) tid=(14,2,0)
GPGPU-Sim PTX: 11000000 instructions simulated : ctaid=(8,6,0) tid=(1,5,0)
GPGPU-Sim PTX: 11100000 instructions simulated : ctaid=(7,4,0) tid=(12,0,0)
GPGPU-Sim uArch: cycles simulated: 30500  inst.: 10814572 (ipc=354.6) sim_rate=127230 (inst/sec) elapsed = 0:0:01:25 / Tue Apr 16 16:54:57 2019
GPGPU-Sim PTX: 11200000 instructions simulated : ctaid=(8,1,0) tid=(1,0,0)
GPGPU-Sim PTX: 11300000 instructions simulated : ctaid=(12,5,0) tid=(7,6,0)
GPGPU-Sim uArch: cycles simulated: 31000  inst.: 11039757 (ipc=356.1) sim_rate=128369 (inst/sec) elapsed = 0:0:01:26 / Tue Apr 16 16:54:58 2019
GPGPU-Sim PTX: 11400000 instructions simulated : ctaid=(8,4,0) tid=(2,1,0)
GPGPU-Sim PTX: 11500000 instructions simulated : ctaid=(9,6,0) tid=(15,1,0)
GPGPU-Sim PTX: 11600000 instructions simulated : ctaid=(7,6,0) tid=(9,7,0)
GPGPU-Sim uArch: cycles simulated: 31500  inst.: 11303295 (ipc=358.8) sim_rate=128446 (inst/sec) elapsed = 0:0:01:28 / Tue Apr 16 16:55:00 2019
GPGPU-Sim PTX: 11700000 instructions simulated : ctaid=(12,5,0) tid=(0,2,0)
GPGPU-Sim PTX: 11800000 instructions simulated : ctaid=(9,3,0) tid=(13,1,0)
GPGPU-Sim uArch: cycles simulated: 32000  inst.: 11582403 (ipc=362.0) sim_rate=127279 (inst/sec) elapsed = 0:0:01:31 / Tue Apr 16 16:55:03 2019
GPGPU-Sim PTX: 11900000 instructions simulated : ctaid=(9,5,0) tid=(13,6,0)
GPGPU-Sim PTX: 12000000 instructions simulated : ctaid=(15,5,0) tid=(13,6,0)
GPGPU-Sim PTX: 12100000 instructions simulated : ctaid=(7,6,0) tid=(15,1,0)
GPGPU-Sim uArch: Shader 7 finished CTA #2 (32495,0), 4 CTAs running
GPGPU-Sim uArch: core:  7, cta: 2 initialized @(32496,0)
GPGPU-Sim uArch: cycles simulated: 32500  inst.: 11874318 (ipc=365.4) sim_rate=127680 (inst/sec) elapsed = 0:0:01:33 / Tue Apr 16 16:55:05 2019
GPGPU-Sim PTX: 12200000 instructions simulated : ctaid=(8,4,0) tid=(12,5,0)
GPGPU-Sim PTX: 12300000 instructions simulated : ctaid=(14,5,0) tid=(15,2,0)
GPGPU-Sim PTX: 12400000 instructions simulated : ctaid=(15,6,0) tid=(13,1,0)
GPGPU-Sim PTX: 12500000 instructions simulated : ctaid=(15,5,0) tid=(6,3,0)
GPGPU-Sim uArch: cycles simulated: 33000  inst.: 12181706 (ipc=369.1) sim_rate=128228 (inst/sec) elapsed = 0:0:01:35 / Tue Apr 16 16:55:07 2019
GPGPU-Sim PTX: 12600000 instructions simulated : ctaid=(4,5,0) tid=(7,3,0)
GPGPU-Sim uArch: Shader 14 finished CTA #2 (33299,0), 4 CTAs running
GPGPU-Sim uArch: core: 14, cta: 2 initialized @(33300,0)
GPGPU-Sim PTX: 12700000 instructions simulated : ctaid=(9,5,0) tid=(13,6,0)
GPGPU-Sim PTX: 12800000 instructions simulated : ctaid=(14,6,0) tid=(8,4,0)
GPGPU-Sim uArch: cycles simulated: 33500  inst.: 12479970 (ipc=372.5) sim_rate=129999 (inst/sec) elapsed = 0:0:01:36 / Tue Apr 16 16:55:08 2019
GPGPU-Sim PTX: 12900000 instructions simulated : ctaid=(10,5,0) tid=(0,3,0)
GPGPU-Sim PTX: 13000000 instructions simulated : ctaid=(3,6,0) tid=(12,6,0)
GPGPU-Sim PTX: 13100000 instructions simulated : ctaid=(8,6,0) tid=(12,2,0)
GPGPU-Sim uArch: cycles simulated: 34000  inst.: 12755118 (ipc=375.2) sim_rate=130154 (inst/sec) elapsed = 0:0:01:38 / Tue Apr 16 16:55:10 2019
GPGPU-Sim PTX: 13200000 instructions simulated : ctaid=(8,0,0) tid=(8,3,0)
GPGPU-Sim PTX: 13300000 instructions simulated : ctaid=(8,3,0) tid=(13,3,0)
GPGPU-Sim uArch: cycles simulated: 34500  inst.: 13021291 (ipc=377.4) sim_rate=130212 (inst/sec) elapsed = 0:0:01:40 / Tue Apr 16 16:55:12 2019
GPGPU-Sim PTX: 13400000 instructions simulated : ctaid=(1,6,0) tid=(2,2,0)
GPGPU-Sim PTX: 13500000 instructions simulated : ctaid=(1,7,0) tid=(15,4,0)
GPGPU-Sim PTX: 13600000 instructions simulated : ctaid=(5,5,0) tid=(1,1,0)
GPGPU-Sim uArch: cycles simulated: 35000  inst.: 13281066 (ipc=379.5) sim_rate=131495 (inst/sec) elapsed = 0:0:01:41 / Tue Apr 16 16:55:13 2019
GPGPU-Sim PTX: 13700000 instructions simulated : ctaid=(8,5,0) tid=(9,7,0)
GPGPU-Sim PTX: 13800000 instructions simulated : ctaid=(9,4,0) tid=(9,3,0)
GPGPU-Sim PTX: 13900000 instructions simulated : ctaid=(15,6,0) tid=(13,3,0)
GPGPU-Sim uArch: cycles simulated: 35500  inst.: 13560944 (ipc=382.0) sim_rate=131659 (inst/sec) elapsed = 0:0:01:43 / Tue Apr 16 16:55:15 2019
GPGPU-Sim PTX: 14000000 instructions simulated : ctaid=(10,0,0) tid=(5,0,0)
GPGPU-Sim PTX: 14100000 instructions simulated : ctaid=(10,6,0) tid=(5,6,0)
GPGPU-Sim PTX: 14200000 instructions simulated : ctaid=(9,1,0) tid=(6,6,0)
GPGPU-Sim uArch: cycles simulated: 36000  inst.: 13830731 (ipc=384.2) sim_rate=132987 (inst/sec) elapsed = 0:0:01:44 / Tue Apr 16 16:55:16 2019
GPGPU-Sim PTX: 14300000 instructions simulated : ctaid=(6,2,0) tid=(5,1,0)
GPGPU-Sim PTX: 14400000 instructions simulated : ctaid=(8,6,0) tid=(15,7,0)
GPGPU-Sim PTX: 14500000 instructions simulated : ctaid=(2,7,0) tid=(1,1,0)
GPGPU-Sim uArch: cycles simulated: 36500  inst.: 14110737 (ipc=386.6) sim_rate=133120 (inst/sec) elapsed = 0:0:01:46 / Tue Apr 16 16:55:18 2019
GPGPU-Sim PTX: 14600000 instructions simulated : ctaid=(12,6,0) tid=(15,7,0)
GPGPU-Sim PTX: 14700000 instructions simulated : ctaid=(2,5,0) tid=(0,6,0)
GPGPU-Sim PTX: 14800000 instructions simulated : ctaid=(7,6,0) tid=(8,4,0)
GPGPU-Sim uArch: cycles simulated: 37000  inst.: 14424087 (ipc=389.8) sim_rate=132331 (inst/sec) elapsed = 0:0:01:49 / Tue Apr 16 16:55:21 2019
GPGPU-Sim PTX: 14900000 instructions simulated : ctaid=(10,6,0) tid=(4,2,0)
GPGPU-Sim PTX: 15000000 instructions simulated : ctaid=(8,0,0) tid=(0,4,0)
GPGPU-Sim PTX: 15100000 instructions simulated : ctaid=(14,5,0) tid=(2,4,0)
GPGPU-Sim uArch: cycles simulated: 37500  inst.: 14725843 (ipc=392.7) sim_rate=131480 (inst/sec) elapsed = 0:0:01:52 / Tue Apr 16 16:55:24 2019
GPGPU-Sim PTX: 15200000 instructions simulated : ctaid=(4,6,0) tid=(0,4,0)
GPGPU-Sim PTX: 15300000 instructions simulated : ctaid=(8,5,0) tid=(0,7,0)
GPGPU-Sim PTX: 15400000 instructions simulated : ctaid=(7,1,0) tid=(1,7,0)
GPGPU-Sim uArch: Shader 14 finished CTA #3 (37957,0), 4 CTAs running
GPGPU-Sim uArch: core: 14, cta: 3 initialized @(37958,0)
GPGPU-Sim uArch: cycles simulated: 38000  inst.: 15013240 (ipc=395.1) sim_rate=131695 (inst/sec) elapsed = 0:0:01:54 / Tue Apr 16 16:55:26 2019
GPGPU-Sim PTX: 15500000 instructions simulated : ctaid=(2,5,0) tid=(5,5,0)
GPGPU-Sim PTX: 15600000 instructions simulated : ctaid=(0,7,0) tid=(2,0,0)
GPGPU-Sim uArch: cycles simulated: 38500  inst.: 15256572 (ipc=396.3) sim_rate=131522 (inst/sec) elapsed = 0:0:01:56 / Tue Apr 16 16:55:28 2019
GPGPU-Sim PTX: 15700000 instructions simulated : ctaid=(14,4,0) tid=(15,6,0)
GPGPU-Sim PTX: 15800000 instructions simulated : ctaid=(7,2,0) tid=(8,3,0)
GPGPU-Sim uArch: cycles simulated: 39000  inst.: 15454514 (ipc=396.3) sim_rate=132089 (inst/sec) elapsed = 0:0:01:57 / Tue Apr 16 16:55:29 2019
[...]
traffic_breakdown_memtocore[GLOBAL_ACC_W] = 65536 {8:8192,}
traffic_breakdown_memtocore[INST_ACC_R] = 1714552 {136:12607,}
traffic_breakdown_memtocore[LOCAL_ACC_R] = 516256 {136:3796,}
traffic_breakdown_memtocore[LOCAL_ACC_W] = 267352 {8:33419,}
maxmrqlatency = 628 
maxdqlatency = 0 
maxmflatency = 1999 
averagemflatency = 278 
max_icnt2mem_latency = 1092 
max_icnt2sh_latency = 141566 
mrq_lat_table:8132 	647 	741 	1465 	2887 	2975 	3099 	2011 	272 	10 	0 	0 	0 	0 	0 	0 	0 	0 	0 	0 	0 	0 	0 	0 	0 	0 	0 	0 	0 	0 	0 	0 	
dq_lat_table:0 	0 	0 	0 	0 	0 	0 	0 	0 	0 	0 	0 	0 	0 	0 	0 	0 	0 	0 	0 	0 	0 	0 	0 	0 	0 	0 	0 	0 	0 	0 	0 	
mf_lat_table:0 	0 	0 	0 	0 	0 	0 	36503 	7007 	4736 	851 	0 	0 	0 	0 	0 	0 	0 	0 	0 	0 	0 	0 	0 	0 	0 	0 	0 	0 	0 	0 	0 	
icnt2mem_lat_table:0 	0 	0 	20202 	9083 	7820 	19707 	2115 	2264 	509 	4 	0 	0 	0 	0 	0 	0 	0 	0 	0 	0 	0 	0 	0 	
icnt2sh_lat_table:0 	0 	0 	1403 	2597 	2724 	759 	3 	0 	186 	498 	1378 	3108 	2630 	6081 	9870 	15595 	2265 	0 	0 	0 	0 	0 	0 	
mf_lat_pw_table:0 	0 	0 	0 	0 	0 	0 	232 	7 	17 	2 	0 	0 	0 	0 	0 	0 	0 	0 	0 	0 	0 	0 	0 	0 	0 	0 	0 	0 	0 	0 	0 	
maximum concurrent accesses to same row:
dram[0]:        54        56        36        34        26        22        32        24        41        20        48        28        26        31        20        26 
dram[1]:        52        54        34        32        20        22        36        35        25        21        26        50        61        44        37        37 
dram[2]:        62        62        54        56        30        30        30        32        28        29        24        64        58        44        24        45 
dram[3]:        58        60        54        56        28        30        36        23        35        35        40        28        12        22        18        41 
dram[4]:        62        64        56        52        30        32        32        27        24        28        81        21        36        45        48        20 
dram[5]:        58        60        56        48        28        34        22        37        22        28        28        27        68        24        26        73 
maximum service time to same row:
dram[0]:     47853     30438     56813     55494     27851     55801     71497     48428     27865     38019     44167     47345     27409     30450     68711     55628 
dram[1]:     35299     45380     53513     70508     35414     54810     44189     47747     35272     39518     57660     47857     52149     54511     49861     49482 
dram[2]:     53831     33083     19981     82051     36095     41780     40933     59984     34569     50820     46529     36342     34528     55929     55652     46499 
dram[3]:     60034     37078     28591     69253     39264     17447     45263     46406     39309     44403     49030     44689     35271     33078     46960     47426 
dram[4]:     35408     42993     16856     48044     31519     46668     46995     29541     31593     51455     60522     41047     39882     42682     80878     46700 
dram[5]:     31549     15303     44650     51041     25194     30572     47521     28791     36125     37771     49060     21562     36314     39236     62297     47018 
average row accesses per activate:
dram[0]:  8.035714  8.666667  7.538462  6.827586  4.018868  4.037037  5.469388  3.710526  6.046512  5.522727  7.000000  5.409091  6.861111  6.794117  6.906250  5.428571 
dram[1]:  5.625000  7.777778  6.433333  5.606061  3.981132  3.836364  4.532258  4.366667  5.488889  5.604651  5.525000  7.533333  6.307693  6.694445  6.588235  6.937500 
dram[2]: 10.523809 10.619047  8.608696 10.578947  4.312500  3.875000  5.538462  5.196078  6.461538  6.219512  5.738095  6.378378  6.942857  7.171429  6.794117  6.416667 
dram[3]:  9.130435  8.000000 10.941176 10.789474  4.163265  4.340425  5.018868  4.072464  7.531250  5.511111  6.216216  5.897436  7.322581  6.195122  5.333333  7.133333 
dram[4]: 10.900000 16.384615 11.941176  8.869565  4.460000  4.320000  4.909091  4.453125  6.550000  5.833333  6.857143  4.957447  5.975610  5.250000  7.161290  7.156250 
dram[5]:  7.535714 12.470589  8.913043  6.689655  3.634921  3.631579  3.770270  4.892857  4.826923  5.478261  5.948718  5.139535  6.972222  7.676471  7.062500  7.655172 
average row locality = 22239/3763 = 5.909912
number of total memory accesses made:
dram[0]:         0         0         0         0         0         0         0         0         0         0         0         0         0         0         0         0 
dram[1]:         0         0         0         0         0         0         0         0         0         0         0         0         0         0         0         0 
dram[2]:         0         0         0         0         0         0         0         0         0         0         0         0         0         0         0         0 
dram[3]:         0         0         0         0         0         0         0         0         0         0         0         0         0         0         0         0 
dram[4]:         0         0         0         0         0         0         0         0         0         0         0         0         0         0         0         0 
dram[5]:         0         0         0         0         0         0         0         0         0         0         0         0         0         0         0         0 
total accesses: 0
min_bank_accesses = 0!
min_chip_accesses = 0!
number of total read accesses:
dram[0]:       104        91        85        84        84        92       112       118       119       112       106       109       112       106       101       105 
dram[1]:        99        92        81        77        88        85       117       108       118       114       104       104       111       111       100       100 
dram[2]:        96       100        87        87        86        88       119       112       121       118       109       105       110       113       105       102 
dram[3]:        93        90        79        87        80        88       112       120       115       116       105       106       107       114        98        98 
dram[4]:        97        96        88        87        90        89       112       120       120       114       107       106       110       113       101       105 
dram[5]:        92        97        87        81        96        82       118       113       118       120       108       105       113       119       100       101 
total reads: 9820
bank skew: 121/77 = 1.57
chip skew: 1658/1608 = 1.03
number of total write accesses:
dram[0]:       121       117       111       114       129       126       156       164       141       131       132       129       135       125       120       123 
dram[1]:       126       118       112       108       123       126       164       154       129       127       117       122       135       130       124       122 
dram[2]:       125       123       111       114       121       129       169       153       131       137       132       131       133       138       126       129 
dram[3]:       117       118       107       118       124       116       154       161       126       132       125       124       120       140       126       116 
dram[4]:       121       117       115       117       133       127       158       165       142       131       133       127       135       139       121       124 
dram[5]:       119       115       118       113       133       125       161       161       133       132       124       116       138       142       126       121 
total reads: 12419
bank skew: 169/107 = 1.58
chip skew: 2105/2024 = 1.04
average mf latency per bank:
dram[0]:        569       511       642       596       699       627       686       606       629       655       684       665       648       693       629       611
dram[1]:        527       505       591       617       649       606       620       596       627       640       687       660       630       622       597       585
dram[2]:        529       499       641       623       689       656       607       640       625       595       630       659       663       602       594       580
dram[3]:        511       525       665       618       649       680       620       584       642       597       635       681       702       585       589       631
dram[4]:        508       522       648       606       643       699       673       600       618       649       649       682       640       632       625       627
dram[5]:        483       502       589       585       547       632       592       574       613       597       628       683       595       556       566       572
maximum mf latency per bank:
dram[0]:       1295      1076      1674      1172      1999      1319      1373      1228      1356      1063      1289      1102      1497      1213      1244      1127
dram[1]:        985      1005      1318      1232      1284      1323      1277      1039      1064      1028      1095      1028       988       904       947       966
dram[2]:       1315      1333      1762      1750      1536      1530      1661      1442      1351      1508      1234      1318      1445      1273      1189      1332
dram[3]:       1138      1370      1535      1699      1341      1483      1218      1450      1156      1089      1000      1198      1148      1183      1053      1123
dram[4]:       1393      1514      1843      1844      1677      1619      1533      1589      1552      1374      1286      1359      1410      1402      1490      1311
dram[5]:       1365      1329      1802      1570      1635      1549      1784      1704      1337      1271      1235      1223      1320      1238      1312      1264

Number of Memory Banks Accessed per Memory Operation per Warp (from 0):
0	0	0	0	0	0	0	0	0	0	0	0	0	0	0	0	0	0	0	0	0	0	0	0	0	0	0	0	0	0	0	0	0	0	0	0	0	0	0	0	0	0	0	0	0	0	0	0	0	0	0	0	0	0	0	0	0	0	0	0	0	0	0	0	0	0	0	0	0	0	0	0	0	0	0	0	0	0	0	0	0	0	0	0	0	0	0	0	0	0	0	0	0	0	0	0	
Average # of Memory Banks Accessed per Memory Operation per Warp=-nan

position of mrq chosen
0	0	0	0	0	0	0	0	0	0	0	0	0	0	0	0	

average position of mrq chosen = -nan
Memory Partition 0: 
Cache L2_bank_000:
MSHR contents

Cache L2_bank_001:
MSHR contents

In Dram Latency Queue (total = 0): 
DRAM[0]: 16 bks, busW=4 BL=8 CL=12, tRRD=2 tCCD=6, tRCD=12 tRAS=28 tRP=12 tRC=40
n_cmd=186868 n_nop=178649 n_act=648 n_pre=632 n_req=3714 n_rd=3280 n_write=3659 bw_util=0.07427
n_activity=31225 dram_eff=0.4445
bk0: 208a 180441i bk1: 182a 181047i bk2: 170a 179947i bk3: 168a 180217i bk4: 168a 178356i bk5: 184a 178577i bk6: 224a 176459i bk7: 236a 176169i bk8: 238a 178685i bk9: 224a 178888i bk10: 212a 178779i bk11: 218a 178960i bk12: 224a 178594i bk13: 212a 178950i bk14: 202a 179837i bk15: 210a 179548i 
dram_util_bins: 0 0 0 0 0 0 0 0 0 0
dram_eff_bins: 0 0 0 0 0 0 0 0 0 0
mrqq: max=16 avg=1.12325
Memory Partition 1: 
Cache L2_bank_002:
MSHR contents

Cache L2_bank_003:
MSHR contents

In Dram Latency Queue (total = 0): 
DRAM[1]: 16 bks, busW=4 BL=8 CL=12, tRRD=2 tCCD=6, tRCD=12 tRAS=28 tRP=12 tRC=40
n_cmd=186868 n_nop=178740 n_act=659 n_pre=643 n_req=3646 n_rd=3218 n_write=3608 bw_util=0.07306
n_activity=31087 dram_eff=0.4392
bk0: 198a 179969i bk1: 184a 180676i bk2: 162a 180058i bk3: 154a 180437i bk4: 176a 177996i bk5: 170a 178069i bk6: 234a 176407i bk7: 216a 177217i bk8: 236a 178443i bk9: 228a 178547i bk10: 208a 179430i bk11: 208a 178999i bk12: 222a 178247i bk13: 222a 179314i bk14: 200a 180027i bk15: 200a 179762i 
dram_util_bins: 0 0 0 0 0 0 0 0 0 0
dram_eff_bins: 0 0 0 0 0 0 0 0 0 0
mrqq: max=16 avg=1.0697
Memory Partition 2: 
Cache L2_bank_004:
MSHR contents

Cache L2_bank_005:
MSHR contents

In Dram Latency Queue (total = 0): 
DRAM[2]: 16 bks, busW=4 BL=8 CL=12, tRRD=2 tCCD=6, tRCD=12 tRAS=28 tRP=12 tRC=40
n_cmd=186868 n_nop=178676 n_act=590 n_pre=574 n_req=3760 n_rd=3316 n_write=3712 bw_util=0.07522
n_activity=32169 dram_eff=0.4369
bk0: 192a 180666i bk1: 200a 180856i bk2: 174a 180784i bk3: 174a 180386i bk4: 172a 178880i bk5: 176a 178772i bk6: 238a 176303i bk7: 224a 176759i bk8: 242a 178746i bk9: 236a 178729i bk10: 218a 178707i bk11: 210a 179237i bk12: 220a 178636i bk13: 226a 178324i bk14: 210a 179509i bk15: 204a 179645i 
dram_util_bins: 0 0 0 0 0 0 0 0 0 0
dram_eff_bins: 0 0 0 0 0 0 0 0 0 0
mrqq: max=16 avg=1.1325
Memory Partition 3: 
Cache L2_bank_006:
MSHR contents

Cache L2_bank_007:
MSHR contents

In Dram Latency Queue (total = 0): 
DRAM[3]: 16 bks, busW=4 BL=8 CL=12, tRRD=2 tCCD=6, tRCD=12 tRAS=28 tRP=12 tRC=40
n_cmd=186868 n_nop=178878 n_act=600 n_pre=584 n_req=3632 n_rd=3216 n_write=3590 bw_util=0.07284
n_activity=31978 dram_eff=0.4257
bk0: 186a 181530i bk1: 180a 180723i bk2: 158a 180846i bk3: 174a 180469i bk4: 160a 179546i bk5: 176a 179203i bk6: 224a 177835i bk7: 240a 177022i bk8: 230a 179201i bk9: 232a 178694i bk10: 210a 179069i bk11: 212a 178541i bk12: 214a 179302i bk13: 228a 178749i bk14: 196a 179569i bk15: 196a 179946i 
dram_util_bins: 0 0 0 0 0 0 0 0 0 0
dram_eff_bins: 0 0 0 0 0 0 0 0 0 0
mrqq: max=16 avg=1.07539
Memory Partition 4: 
Cache L2_bank_008:
MSHR contents

Cache L2_bank_009:
MSHR contents

In Dram Latency Queue (total = 0): 
DRAM[4]: 16 bks, busW=4 BL=8 CL=12, tRRD=2 tCCD=6, tRCD=12 tRAS=28 tRP=12 tRC=40
n_cmd=186868 n_nop=178638 n_act=608 n_pre=592 n_req=3760 n_rd=3310 n_write=3720 bw_util=0.07524
n_activity=32687 dram_eff=0.4301
bk0: 194a 180891i bk1: 192a 181446i bk2: 176a 180326i bk3: 174a 180329i bk4: 180a 178360i bk5: 178a 178383i bk6: 224a 176330i bk7: 240a 176622i bk8: 240a 178319i bk9: 228a 178403i bk10: 214a 178790i bk11: 212a 178839i bk12: 220a 178550i bk13: 226a 178117i bk14: 202a 179936i bk15: 210a 179876i 
dram_util_bins: 0 0 0 0 0 0 0 0 0 0
dram_eff_bins: 0 0 0 0 0 0 0 0 0 0
mrqq: max=16 avg=1.14054
Memory Partition 5: 
Cache L2_bank_010:
MSHR contents

Cache L2_bank_011:
MSHR contents

In Dram Latency Queue (total = 0): 
DRAM[5]: 16 bks, busW=4 BL=8 CL=12, tRRD=2 tCCD=6, tRCD=12 tRAS=28 tRP=12 tRC=40
n_cmd=186868 n_nop=178577 n_act=658 n_pre=642 n_req=3727 n_rd=3300 n_write=3691 bw_util=0.07482
n_activity=33753 dram_eff=0.4142
bk0: 184a 180674i bk1: 194a 181304i bk2: 174a 180230i bk3: 162a 180753i bk4: 192a 178089i bk5: 164a 179019i bk6: 236a 176678i bk7: 226a 177450i bk8: 236a 178670i bk9: 240a 178766i bk10: 216a 179331i bk11: 210a 178998i bk12: 226a 178568i bk13: 238a 178521i bk14: 200a 180164i bk15: 202a 179853i 
dram_util_bins: 0 0 0 0 0 0 0 0 0 0
dram_eff_bins: 0 0 0 0 0 0 0 0 0 0
mrqq: max=16 avg=1.05794

========= L2 cache stats =========
L2_cache_bank[0]: Access = 5103, Miss = 823, Miss_rate = 0.161, Pending_hits = 101, Reservation_fails = 1111
L2_cache_bank[1]: Access = 5244, Miss = 817, Miss_rate = 0.156, Pending_hits = 76, Reservation_fails = 603
L2_cache_bank[2]: Access = 5146, Miss = 818, Miss_rate = 0.159, Pending_hits = 86, Reservation_fails = 927
L2_cache_bank[3]: Access = 5219, Miss = 791, Miss_rate = 0.152, Pending_hits = 68, Reservation_fails = 416
L2_cache_bank[4]: Access = 4936, Miss = 833, Miss_rate = 0.169, Pending_hits = 84, Reservation_fails = 955
L2_cache_bank[5]: Access = 5094, Miss = 825, Miss_rate = 0.162, Pending_hits = 93, Reservation_fails = 380
L2_cache_bank[6]: Access = 5141, Miss = 789, Miss_rate = 0.153, Pending_hits = 66, Reservation_fails = 379
L2_cache_bank[7]: Access = 5295, Miss = 819, Miss_rate = 0.155, Pending_hits = 69, Reservation_fails = 414
L2_cache_bank[8]: Access = 5161, Miss = 825, Miss_rate = 0.160, Pending_hits = 90, Reservation_fails = 644
L2_cache_bank[9]: Access = 5016, Miss = 830, Miss_rate = 0.165, Pending_hits = 78, Reservation_fails = 310
L2_cache_bank[10]: Access = 5230, Miss = 832, Miss_rate = 0.159, Pending_hits = 72, Reservation_fails = 629
L2_cache_bank[11]: Access = 5119, Miss = 818, Miss_rate = 0.160, Pending_hits = 68, Reservation_fails = 403
L2_total_cache_accesses = 61704
L2_total_cache_misses = 9820
L2_total_cache_miss_rate = 0.1591
L2_total_cache_pending_hits = 951
L2_total_cache_reservation_fails = 7171
L2_total_cache_breakdown:
	L2_cache_stats_breakdown[GLOBAL_ACC_R][HIT] = 3578
	L2_cache_stats_breakdown[GLOBAL_ACC_R][HIT_RESERVED] = 10
	L2_cache_stats_breakdown[GLOBAL_ACC_R][MISS] = 72
	L2_cache_stats_breakdown[GLOBAL_ACC_R][RESERVATION_FAIL] = 366
	L2_cache_stats_breakdown[LOCAL_ACC_R][HIT] = 3610
	L2_cache_stats_breakdown[LOCAL_ACC_R][MISS] = 186
	L2_cache_stats_breakdown[CONST_ACC_R][HIT] = 22
	L2_cache_stats_breakdown[CONST_ACC_R][HIT_RESERVED] = 6
	L2_cache_stats_breakdown[CONST_ACC_R][MISS] = 2
	L2_cache_stats_breakdown[CONST_ACC_R][RESERVATION_FAIL] = 574
	L2_cache_stats_breakdown[GLOBAL_ACC_W][HIT] = 5366
	L2_cache_stats_breakdown[GLOBAL_ACC_W][HIT_RESERVED] = 778
	L2_cache_stats_breakdown[GLOBAL_ACC_W][MISS] = 2048
	L2_cache_stats_breakdown[GLOBAL_ACC_W][RESERVATION_FAIL] = 11
	L2_cache_stats_breakdown[LOCAL_ACC_W][HIT] = 25960
	L2_cache_stats_breakdown[LOCAL_ACC_W][MISS] = 7459
	L2_cache_stats_breakdown[LOCAL_ACC_W][RESERVATION_FAIL] = 178
	L2_cache_stats_breakdown[INST_ACC_R][HIT] = 12397
	L2_cache_stats_breakdown[INST_ACC_R][HIT_RESERVED] = 157
	L2_cache_stats_breakdown[INST_ACC_R][MISS] = 53
	L2_cache_stats_breakdown[INST_ACC_R][RESERVATION_FAIL] = 6042
L2_cache_data_port_util = 0.113
L2_cache_fill_port_util = 0.023

icnt_total_pkts_mem_to_simt=142016
icnt_total_pkts_simt_to_mem=209584
LD_mem_lat_dist  0 0 0 0 0 0 0 0 0 0 0 0 0 0 0 0 0 0 0 0 0 0 0 0 0 0 0
ST_mem_lat_dist  0 0 0 0 0 0 0 0 0 0 0 0 0 0 0 0 0 0 0 0 0 0 0 0 0 0 0
----------------------------Interconnect-DETAILS--------------------------------
Class 0:
Packet latency average = 17.7584
	minimum = 6
	maximum = 703
Network latency average = 14.0426
	minimum = 6
	maximum = 678
Slowest packet = 707
Flit latency average = 13.6138
	minimum = 6
	maximum = 674
Slowest flit = 10925
Fragmentation average = 0.142203
	minimum = 0
	maximum = 551
Injected packet rate average = 0.0322862
	minimum = 0.0240663 (at node 12)
	maximum = 0.0374028 (at node 22)
Accepted packet rate average = 0.0322862
	minimum = 0.0240663 (at node 12)
	maximum = 0.0374028 (at node 22)
Injected flit rate average = 0.0919863
	minimum = 0.0713796 (at node 12)
	maximum = 0.123786 (at node 0)
Accepted flit rate average= 0.0919863
	minimum = 0.0568777 (at node 2)
	maximum = 0.127445 (at node 18)
Injected packet length average = 2.84909
Accepted packet length average = 2.84909
Total in-flight flits = 0 (0 measured)
====== Overall Traffic Statistics ======
====== Traffic class 0 ======
Packet latency average = 17.7584 (1 samples)
	minimum = 6 (1 samples)
	maximum = 703 (1 samples)
Network latency average = 14.0426 (1 samples)
	minimum = 6 (1 samples)
	maximum = 678 (1 samples)
Flit latency average = 13.6138 (1 samples)
	minimum = 6 (1 samples)
	maximum = 674 (1 samples)
Fragmentation average = 0.142203 (1 samples)
	minimum = 0 (1 samples)
	maximum = 551 (1 samples)
Injected packet rate average = 0.0322862 (1 samples)
	minimum = 0.0240663 (1 samples)
	maximum = 0.0374028 (1 samples)
Accepted packet rate average = 0.0322862 (1 samples)
	minimum = 0.0240663 (1 samples)
	maximum = 0.0374028 (1 samples)
Injected flit rate average = 0.0919863 (1 samples)
	minimum = 0.0713796 (1 samples)
	maximum = 0.123786 (1 samples)
Accepted flit rate average = 0.0919863 (1 samples)
	minimum = 0.0568777 (1 samples)
	maximum = 0.127445 (1 samples)
Injected packet size average = 2.84909 (1 samples)
Accepted packet size average = 2.84909 (1 samples)
Hops average = 1 (1 samples)
----------------------------END-of-Interconnect-DETAILS-------------------------


gpgpu_simulation_time = 0 days, 0 hrs, 7 min, 51 sec (471 sec)
gpgpu_simulation_rate = 133084 (inst/sec)
gpgpu_simulation_rate = 300 (cycle/sec)
GPGPU-Sim: synchronize waiting for inactive GPU simulation
GPGPU-Sim API: Stream Manager State
GPGPU-Sim: detected inactive GPU simulation thread

checksum=75ef40cb5b8e
Kernel Time: 470292.781250 
