

        *** GPGPU-Sim Simulator Version 3.2.2  [build 0] ***


GPGPU-Sim PTX: simulation mode 0 (can change with PTX_SIM_MODE_FUNC environment variable:
               1=functional simulation only, 0=detailed performance simulator)
GPGPU-Sim: Configuration options:

-network_mode                           1 # Interconnection network mode
-inter_config_file   config_fermi_islip.icnt # Interconnection network config file
-gpgpu_ptx_use_cuobjdump                    1 # Use cuobjdump to extract ptx and sass from binaries
-gpgpu_experimental_lib_support                    0 # Try to extract code from cuda libraries [Broken because of unknown cudaGetExportTable]
-gpgpu_ptx_convert_to_ptxplus                    0 # Convert SASS (native ISA) to ptxplus and run ptxplus
-gpgpu_ptx_force_max_capability                   20 # Force maximum compute capability
-gpgpu_ptx_inst_debug_to_file                    0 # Dump executed instructions' debug information to file
-gpgpu_ptx_inst_debug_file       inst_debug.txt # Executed instructions' debug output file
-gpgpu_ptx_inst_debug_thread_uid                    1 # Thread UID for executed instructions' debug output
-gpgpu_simd_model                       1 # 1 = post-dominator
-gpgpu_shader_core_pipeline              1536:32 # shader core pipeline config, i.e., {<nthread>:<warpsize>}
-gpgpu_tex_cache:l1  4:128:24,L:R:m:N:L,F:128:4,128:2 # per-shader L1 texture cache  (READ-ONLY) config  {<nsets>:<bsize>:<assoc>,<rep>:<wr>:<alloc>:<wr_alloc>,<mshr>:<N>:<merge>,<mq>:<rf>}
-gpgpu_const_cache:l1 64:64:2,L:R:f:N:L,A:2:32,4 # per-shader L1 constant memory cache  (READ-ONLY) config  {<nsets>:<bsize>:<assoc>,<rep>:<wr>:<alloc>:<wr_alloc>,<mshr>:<N>:<merge>,<mq>} 
-gpgpu_cache:il1     4:128:4,L:R:f:N:L,A:2:32,4 # shader L1 instruction cache config  {<nsets>:<bsize>:<assoc>,<rep>:<wr>:<alloc>:<wr_alloc>,<mshr>:<N>:<merge>,<mq>} 
-gpgpu_cache:dl1     32:128:4,L:L:m:N:H,A:32:8,8 # per-shader L1 data cache config  {<nsets>:<bsize>:<assoc>,<rep>:<wr>:<alloc>:<wr_alloc>,<mshr>:<N>:<merge>,<mq> | none}
-gpgpu_cache:dl1PrefL1                 none # per-shader L1 data cache config  {<nsets>:<bsize>:<assoc>,<rep>:<wr>:<alloc>:<wr_alloc>,<mshr>:<N>:<merge>,<mq> | none}
-gpgpu_cache:dl1PreShared                 none # per-shader L1 data cache config  {<nsets>:<bsize>:<assoc>,<rep>:<wr>:<alloc>:<wr_alloc>,<mshr>:<N>:<merge>,<mq> | none}
-gmem_skip_L1D                          0 # global memory access skip L1D cache (implements -Xptxas -dlcm=cg, default=no skip)
-gpgpu_perfect_mem                      0 # enable perfect memory mode (no cache miss)
-n_regfile_gating_group                    4 # group of lanes that should be read/written together)
-gpgpu_clock_gated_reg_file                    0 # enable clock gated reg file for power calculations
-gpgpu_clock_gated_lanes                    0 # enable clock gated lanes for power calculations
-gpgpu_shader_registers                32768 # Number of registers per shader core. Limits number of concurrent CTAs. (default 8192)
-gpgpu_shader_cta                       8 # Maximum number of concurrent CTAs in shader (default 8)
-gpgpu_num_cta_barriers                   16 # Maximum number of named barriers per CTA (default 16)
-gpgpu_n_clusters                      15 # number of processing clusters
-gpgpu_n_cores_per_cluster                    1 # number of simd cores per cluster
-gpgpu_n_cluster_ejection_buffer_size                    8 # number of packets in ejection buffer
-gpgpu_n_ldst_response_buffer_size                    2 # number of response packets in ld/st unit ejection buffer
-gpgpu_shmem_size                   16384 # Size of shared memory per shader core (default 16kB)
-gpgpu_shmem_size                   49152 # Size of shared memory per shader core (default 16kB)
-gpgpu_shmem_size_PrefL1                16384 # Size of shared memory per shader core (default 16kB)
-gpgpu_shmem_size_PrefShared                16384 # Size of shared memory per shader core (default 16kB)
-gpgpu_shmem_num_banks                   32 # Number of banks in the shared memory in each shader core (default 16)
-gpgpu_shmem_limited_broadcast                    0 # Limit shared memory to do one broadcast per cycle (default on)
-gpgpu_shmem_warp_parts                    1 # Number of portions a warp is divided into for shared memory bank conflict check 
-gpgpu_warpdistro_shader                   -1 # Specify which shader core to collect the warp size distribution from
-gpgpu_warp_issue_shader                    0 # Specify which shader core to collect the warp issue distribution from
-gpgpu_local_mem_map                    1 # Mapping from local memory space address to simulated GPU physical address space (default = enabled)
-gpgpu_num_reg_banks                   16 # Number of register banks (default = 8)
-gpgpu_reg_bank_use_warp_id                    0 # Use warp ID in mapping registers to banks (default = off)
-gpgpu_operand_collector_num_units_sp                    6 # number of collector units (default = 4)
-gpgpu_operand_collector_num_units_sfu                    8 # number of collector units (default = 4)
-gpgpu_operand_collector_num_units_mem                    2 # number of collector units (default = 2)
-gpgpu_operand_collector_num_units_gen                    0 # number of collector units (default = 0)
-gpgpu_operand_collector_num_in_ports_sp                    2 # number of collector unit in ports (default = 1)
-gpgpu_operand_collector_num_in_ports_sfu                    1 # number of collector unit in ports (default = 1)
-gpgpu_operand_collector_num_in_ports_mem                    1 # number of collector unit in ports (default = 1)
-gpgpu_operand_collector_num_in_ports_gen                    0 # number of collector unit in ports (default = 0)
-gpgpu_operand_collector_num_out_ports_sp                    2 # number of collector unit in ports (default = 1)
-gpgpu_operand_collector_num_out_ports_sfu                    1 # number of collector unit in ports (default = 1)
-gpgpu_operand_collector_num_out_ports_mem                    1 # number of collector unit in ports (default = 1)
-gpgpu_operand_collector_num_out_ports_gen                    0 # number of collector unit in ports (default = 0)
-gpgpu_coalesce_arch                   13 # Coalescing arch (default = 13, anything else is off for now)
-gpgpu_num_sched_per_core                    2 # Number of warp schedulers per core
-gpgpu_max_insn_issue_per_warp                    1 # Max number of instructions that can be issued per warp in one cycle by scheduler
-gpgpu_simt_core_sim_order                    1 # Select the simulation order of cores in a cluster (0=Fix, 1=Round-Robin)
-gpgpu_pipeline_widths        2,1,1,2,1,1,2 # Pipeline widths ID_OC_SP,ID_OC_SFU,ID_OC_MEM,OC_EX_SP,OC_EX_SFU,OC_EX_MEM,EX_WB
-gpgpu_num_sp_units                     2 # Number of SP units (default=1)
-gpgpu_num_sfu_units                    1 # Number of SF units (default=1)
-gpgpu_num_mem_units                    1 # Number if ldst units (default=1) WARNING: not hooked up to anything
-gpgpu_scheduler                      gto # Scheduler configuration: < lrr | gto | two_level_active > If two_level_active:<num_active_warps>:<inner_prioritization>:<outer_prioritization>For complete list of prioritization values see shader.h enum scheduler_prioritization_typeDefault: gto
-gpgpu_dram_scheduler                    1 # 0 = fifo, 1 = FR-FCFS (defaul)
-gpgpu_dram_partition_queues              8:8:8:8 # i2$:$2d:d2$:$2i
-l2_ideal                               0 # Use a ideal L2 cache that always hit
-gpgpu_cache:dl2     64:128:32,L:B:m:W:L,A:32:4,4:0,32 # unified banked L2 data cache config  {<nsets>:<bsize>:<assoc>,<rep>:<wr>:<alloc>:<wr_alloc>,<mshr>:<N>:<merge>,<mq>}
-gpgpu_cache:dl2_texture_only                    0 # L2 cache used for texture only
-gpgpu_n_mem                            6 # number of memory modules (e.g. memory controllers) in gpu
-gpgpu_n_sub_partition_per_mchannel                    2 # number of memory subpartition in each memory module
-gpgpu_n_mem_per_ctrlr                    2 # number of memory chips per memory controller
-gpgpu_memlatency_stat                   14 # track and display latency statistics 0x2 enables MC, 0x4 enables queue logs
-gpgpu_frfcfs_dram_sched_queue_size                   16 # 0 = unlimited (default); # entries per chip
-gpgpu_dram_return_queue_size                  116 # 0 = unlimited (default); # entries per chip
-gpgpu_dram_buswidth                    4 # default = 4 bytes (8 bytes per cycle at DDR)
-gpgpu_dram_burst_length                    8 # Burst length of each DRAM request (default = 4 data bus cycle)
-dram_data_command_freq_ratio                    4 # Frequency ratio between DRAM data bus and command bus (default = 2 times, i.e. DDR)
-gpgpu_dram_timing_opt nbk=16:CCD=2:RRD=6:RCD=12:RAS=28:RP=12:RC=40: CL=12:WL=4:CDLR=5:WR=12:nbkgrp=4:CCDL=3:RTPL=2 # DRAM timing parameters = {nbk:tCCD:tRRD:tRCD:tRAS:tRP:tRC:CL:WL:tCDLR:tWR:nbkgrp:tCCDL:tRTPL}
-rop_latency                          120 # ROP queue latency (default 85)
-dram_latency                         100 # DRAM latency (default 30)
-gpgpu_mem_addr_mapping dramid@8;00000000.00000000.00000000.00000000.0000RRRR.RRRRRRRR.BBBCCCCB.CCSSSSSS # mapping memory address to dram model {dramid@<start bit>;<memory address map>}
-gpgpu_mem_addr_test                    0 # run sweep test to check address mapping for aliased address
-gpgpu_mem_address_mask                    1 # 0 = old addressing mask, 1 = new addressing mask, 2 = new add. mask + flipped bank sel and chip sel bits
-gpuwattch_xml_file  gpuwattch_gtx480.xml # GPUWattch XML file
-power_simulation_enabled                    1 # Turn on power simulator (1=On, 0=Off)
-power_per_cycle_dump                    0 # Dump detailed power output each cycle
-power_trace_enabled                    0 # produce a file for the power trace (1=On, 0=Off)
-power_trace_zlevel                     6 # Compression level of the power trace output log (0=no comp, 9=highest)
-steady_power_levels_enabled                    0 # produce a file for the steady power levels (1=On, 0=Off)
-steady_state_definition                  8:4 # allowed deviation:number of samples
-gpgpu_max_cycle                        0 # terminates gpu simulation early (0 = no limit)
-gpgpu_max_insn                         0 # terminates gpu simulation early (0 = no limit)
-gpgpu_max_cta                          0 # terminates gpu simulation early (0 = no limit)
-gpgpu_runtime_stat                   500 # display runtime statistics such as dram utilization {<freq>:<flag>}
-liveness_message_freq                    1 # Minimum number of seconds between simulation liveness messages (0 = always print)
-gpgpu_flush_l1_cache                    0 # Flush L1 cache at the end of each kernel call
-gpgpu_flush_l2_cache                    0 # Flush L2 cache at the end of each kernel call
-gpgpu_deadlock_detect                    1 # Stop the simulation at deadlock (1=on (default), 0=off)
-gpgpu_ptx_instruction_classification                    0 # if enabled will classify ptx instruction types per kernel (Max 255 kernels now)
-gpgpu_ptx_sim_mode                     0 # Select between Performance (default) or Functional simulation (1)
-gpgpu_clock_domains 700.0:700.0:700.0:924.0 # Clock Domain Frequencies in MhZ {<Core Clock>:<ICNT Clock>:<L2 Clock>:<DRAM Clock>}
-gpgpu_max_concurrent_kernel                    8 # maximum kernels that can run concurrently on GPU
-gpgpu_cflog_interval                    0 # Interval between each snapshot in control flow logger
-visualizer_enabled                     0 # Turn on visualizer output (1=On, 0=Off)
-visualizer_outputfile                 NULL # Specifies the output log file for visualizer
-visualizer_zlevel                      6 # Compression level of the visualizer output log (0=no comp, 9=highest)
-trace_enabled                          0 # Turn on traces
-trace_components                    none # comma seperated list of traces to enable. Complete list found in trace_streams.tup. Default none
-trace_sampling_core                    0 # The core which is printed using CORE_DPRINTF. Default 0
-trace_sampling_memory_partition                   -1 # The memory partition which is printed using MEMPART_DPRINTF. Default -1 (i.e. all)
-enable_ptx_file_line_stats                    1 # Turn on PTX source line statistic profiling. (1 = On)
-ptx_line_stats_filename gpgpu_inst_stats.txt # Output file for PTX source line statistics.
-save_embedded_ptx                      0 # saves ptx files embedded in binary as <n>.ptx
-keep                                   0 # keep intermediate files created by GPGPU-Sim when interfacing with external programs
-gpgpu_ptx_save_converted_ptxplus                    0 # Saved converted ptxplus to a file
-ptx_opcode_latency_int         4,13,4,5,145 # Opcode latencies for integers <ADD,MAX,MUL,MAD,DIV>Default 1,1,19,25,145
-ptx_opcode_latency_fp          4,13,4,5,39 # Opcode latencies for single precision floating points <ADD,MAX,MUL,MAD,DIV>Default 1,1,1,1,30
-ptx_opcode_latency_dp         8,19,8,8,330 # Opcode latencies for double precision floating points <ADD,MAX,MUL,MAD,DIV>Default 8,8,8,8,335
-ptx_opcode_initiation_int            1,2,2,1,8 # Opcode initiation intervals for integers <ADD,MAX,MUL,MAD,DIV>Default 1,1,4,4,32
-ptx_opcode_initiation_fp            1,2,1,1,4 # Opcode initiation intervals for single precision floating points <ADD,MAX,MUL,MAD,DIV>Default 1,1,1,1,5
-ptx_opcode_initiation_dp         8,16,8,8,130 # Opcode initiation intervals for double precision floating points <ADD,MAX,MUL,MAD,DIV>Default 8,8,8,8,130
DRAM Timing Options:
nbk                                    16 # number of banks
CCD                                     2 # column to column delay
RRD                                     6 # minimal delay between activation of rows in different banks
RCD                                    12 # row to column delay
RAS                                    28 # time needed to activate row
RP                                     12 # time needed to precharge (deactivate) row
RC                                     40 # row cycle time
CDLR                                    5 # switching from write to read (changes tWTR)
WR                                     12 # last data-in to row precharge
CL                                     12 # CAS latency
WL                                      4 # Write latency
nbkgrp                                  4 # number of bank groups
CCDL                                    3 # column to column delay between accesses to different bank groups
RTPL                                    2 # read to precharge delay between accesses to different bank groups
Total number of memory sub partition = 12
addr_dec_mask[CHIP]  = 0000000000000000 	high:64 low:0
addr_dec_mask[BK]    = 000000000000e100 	high:16 low:8
addr_dec_mask[ROW]   = 000000000fff0000 	high:28 low:16
addr_dec_mask[COL]   = 0000000000001eff 	high:13 low:0
addr_dec_mask[BURST] = 000000000000003f 	high:6 low:0
sub_partition_id_mask = 0000000000000100
GPGPU-Sim uArch: clock freqs: 700000000.000000:700000000.000000:700000000.000000:924000000.000000
GPGPU-Sim uArch: clock periods: 0.00000000142857142857:0.00000000142857142857:0.00000000142857142857:0.00000000108225108225
*** Initializing Memory Statistics ***
GPGPU-Sim uArch: interconnect node map (shaderID+MemID to icntID)
GPGPU-Sim uArch: Memory nodes ID start from index: 15
GPGPU-Sim uArch:    0   1   2   3   4
GPGPU-Sim uArch:    5   6   7   8   9
GPGPU-Sim uArch:   10  11  12  13  14
GPGPU-Sim uArch:   15  16  17  18  19
GPGPU-Sim uArch:   20  21  22  23  24
GPGPU-Sim uArch:   25  26
GPGPU-Sim uArch: interconnect node reverse map (icntID to shaderID+MemID)
GPGPU-Sim uArch: Memory nodes start from ID: 15
GPGPU-Sim uArch:    0   1   2   3   4
GPGPU-Sim uArch:    5   6   7   8   9
GPGPU-Sim uArch:   10  11  12  13  14
GPGPU-Sim uArch:   15  16  17  18  19
GPGPU-Sim uArch:   20  21  22  23  24
GPGPU-Sim uArch:   25  26
fa24d9d62d9e9d43df0eb292e3b27e2e  /home/scratch/adwait/applications/benchmarks/CUDA/BFS/gpgpu_ptx_sim__BFS
GPGPU-Sim uArch: performance model initialization complete.
GPGPU-Sim PTX: __cudaRegisterFatBinary, fat_cubin_handle = 1, filename=bfs.cu
self exe links to: /home/scratch/adwait/applications/benchmarks/CUDA/BFS/gpgpu_ptx_sim__BFS
Running md5sum using "md5sum /home/scratch/adwait/applications/benchmarks/CUDA/BFS/gpgpu_ptx_sim__BFS "
Running cuobjdump using "$CUDA_INSTALL_PATH/bin/cuobjdump -ptx -elf -sass /home/scratch/adwait/applications/benchmarks/CUDA/BFS/gpgpu_ptx_sim__BFS > _cuobjdump_complete_output_vxkpZG"
Parsing file _cuobjdump_complete_output_vxkpZG
######### cuobjdump parser ########
## Adding new section ELF
Adding arch: sm_20
Adding identifier: bfs.cu
## Adding new section PTX
Adding ptx filename: _cuobjdump_1.ptx
Adding arch: sm_20
Adding identifier: bfs.cu
Done parsing!!!
GPGPU-Sim PTX: __cudaRegisterFunction _Z6KernelP4NodePiPbS2_S1_S2_i : hostFun 0x0x404fc4, fat_cubin_handle = 1
GPGPU-Sim PTX: instruction assembly for function '_Z6KernelP4NodePiPbS2_S1_S2_i'...   done.
GPGPU-Sim PTX: finding reconvergence points for '_Z6KernelP4NodePiPbS2_S1_S2_i'...
GPGPU-Sim PTX: Finding dominators for '_Z6KernelP4NodePiPbS2_S1_S2_i'...
GPGPU-Sim PTX: Finding immediate dominators for '_Z6KernelP4NodePiPbS2_S1_S2_i'...
GPGPU-Sim PTX: Finding postdominators for '_Z6KernelP4NodePiPbS2_S1_S2_i'...
GPGPU-Sim PTX: Finding immediate postdominators for '_Z6KernelP4NodePiPbS2_S1_S2_i'...
GPGPU-Sim PTX: pre-decoding instructions for '_Z6KernelP4NodePiPbS2_S1_S2_i'...
GPGPU-Sim PTX: reconvergence points for _Z6KernelP4NodePiPbS2_S1_S2_i...
GPGPU-Sim PTX:  1 (potential) branch divergence @  PC=0x030 (_1.ptx:72) @%p1 bra $Lt_0_5122;
GPGPU-Sim PTX:    immediate post dominator      @  PC=0x1e8 (_1.ptx:141) exit;
GPGPU-Sim PTX:  2 (potential) branch divergence @  PC=0x068 (_1.ptx:79) @%p2 bra $Lt_0_5122;
GPGPU-Sim PTX:    immediate post dominator      @  PC=0x1e8 (_1.ptx:141) exit;
GPGPU-Sim PTX:  3 (potential) branch divergence @  PC=0x0e0 (_1.ptx:97) @%p3 bra $Lt_0_5122;
GPGPU-Sim PTX:    immediate post dominator      @  PC=0x1e8 (_1.ptx:141) exit;
GPGPU-Sim PTX:  4 (potential) branch divergence @  PC=0x138 (_1.ptx:111) @%p4 bra $Lt_0_4354;
GPGPU-Sim PTX:    immediate post dominator      @  PC=0x1c8 (_1.ptx:134) add.s32 %r11, %r11, 1;
GPGPU-Sim PTX:  5 (potential) branch divergence @  PC=0x1e0 (_1.ptx:137) @%p5 bra $Lt_0_4098;
GPGPU-Sim PTX:    immediate post dominator      @  PC=0x1e8 (_1.ptx:141) exit;
GPGPU-Sim PTX: ... end of reconvergence points for _Z6KernelP4NodePiPbS2_S1_S2_i
GPGPU-Sim PTX: ... done pre-decoding instructions for '_Z6KernelP4NodePiPbS2_S1_S2_i'.
GPGPU-Sim PTX: finished parsing EMBEDDED .ptx file _1.ptx
Adding _cuobjdump_1.ptx with cubin handle 1
GPGPU-Sim PTX: extracting embedded .ptx to temporary file "_ptx_uV2lSS"
Running: cat _ptx_uV2lSS | sed 's/.version 1.5/.version 1.4/' | sed 's/, texmode_independent//' | sed 's/\(\.extern \.const\[1\] .b8 \w\+\)\[\]/\1\[1\]/' | sed 's/const\[.\]/const\[0\]/g' > _ptx2_F5hIL4
GPGPU-Sim PTX: generating ptxinfo using "$CUDA_INSTALL_PATH/bin/ptxas --gpu-name=sm_20 -v _ptx2_F5hIL4 --output-file  /dev/null 2> _ptx_uV2lSSinfo"
GPGPU-Sim PTX: Kernel '_Z6KernelP4NodePiPbS2_S1_S2_i' : regs=18, lmem=0, smem=0, cmem=84
GPGPU-Sim PTX: removing ptxinfo using "rm -f _ptx_uV2lSS _ptx2_F5hIL4 _ptx_uV2lSSinfo"
GPGPU-Sim PTX: loading globals with explicit initializers... 
GPGPU-Sim PTX: finished loading globals (0 bytes total).
GPGPU-Sim PTX: loading constants with explicit initializers...  done.
Reading File
Input file: ./data/graph65536.txt
Read File
Copied Everything to GPU memory

GPGPU-Sim PTX: cudaLaunch for 0x0x404fc4 (mode=performance simulation) on stream 0
GPGPU-Sim PTX: pushing kernel '_Z6KernelP4NodePiPbS2_S1_S2_i' to stream 0, gridDim= (256,1,1) blockDim = (256,1,1) 
kernel '_Z6KernelP4NodePiPbS2_S1_S2_i' transfer to GPU hardware scheduler
GPGPU-Sim uArch: Shader 1 bind to kernel 1 '_Z6KernelP4NodePiPbS2_S1_S2_i'
GPGPU-Sim uArch: CTA/core = 6, limited by: threads regs
GPGPU-Sim uArch: core:  1, cta: 0 initialized @(1,0)
GPGPU-Sim uArch: Shader 2 bind to kernel 1 '_Z6KernelP4NodePiPbS2_S1_S2_i'
GPGPU-Sim uArch: core:  2, cta: 0 initialized @(1,0)
GPGPU-Sim uArch: Shader 3 bind to kernel 1 '_Z6KernelP4NodePiPbS2_S1_S2_i'
GPGPU-Sim uArch: core:  3, cta: 0 initialized @(1,0)
GPGPU-Sim uArch: Shader 4 bind to kernel 1 '_Z6KernelP4NodePiPbS2_S1_S2_i'
GPGPU-Sim uArch: core:  4, cta: 0 initialized @(1,0)
GPGPU-Sim uArch: Shader 5 bind to kernel 1 '_Z6KernelP4NodePiPbS2_S1_S2_i'
GPGPU-Sim uArch: core:  5, cta: 0 initialized @(1,0)
GPGPU-Sim uArch: Shader 6 bind to kernel 1 '_Z6KernelP4NodePiPbS2_S1_S2_i'
GPGPU-Sim uArch: core:  6, cta: 0 initialized @(1,0)
GPGPU-Sim uArch: Shader 7 bind to kernel 1 '_Z6KernelP4NodePiPbS2_S1_S2_i'
GPGPU-Sim uArch: core:  7, cta: 0 initialized @(1,0)
GPGPU-Sim uArch: Shader 8 bind to kernel 1 '_Z6KernelP4NodePiPbS2_S1_S2_i'
GPGPU-Sim uArch: core:  8, cta: 0 initialized @(1,0)
GPGPU-Sim uArch: Shader 9 bind to kernel 1 '_Z6KernelP4NodePiPbS2_S1_S2_i'
GPGPU-Sim uArch: core:  9, cta: 0 initialized @(1,0)
GPGPU-Sim uArch: Shader 10 bind to kernel 1 '_Z6KernelP4NodePiPbS2_S1_S2_i'
GPGPU-Sim uArch: core: 10, cta: 0 initialized @(1,0)
GPGPU-Sim uArch: Shader 11 bind to kernel 1 '_Z6KernelP4NodePiPbS2_S1_S2_i'
GPGPU-Sim uArch: core: 11, cta: 0 initialized @(1,0)
GPGPU-Sim uArch: Shader 12 bind to kernel 1 '_Z6KernelP4NodePiPbS2_S1_S2_i'
GPGPU-Sim uArch: core: 12, cta: 0 initialized @(1,0)
GPGPU-Sim uArch: Shader 13 bind to kernel 1 '_Z6KernelP4NodePiPbS2_S1_S2_i'
GPGPU-Sim uArch: core: 13, cta: 0 initialized @(1,0)
GPGPU-Sim uArch: Shader 14 bind to kernel 1 '_Z6KernelP4NodePiPbS2_S1_S2_i'
GPGPU-Sim uArch: core: 14, cta: 0 initialized @(1,0)
GPGPU-Sim uArch: Shader 0 bind to kernel 1 '_Z6KernelP4NodePiPbS2_S1_S2_i'
GPGPU-Sim uArch: core:  0, cta: 0 initialized @(1,0)
GPGPU-Sim uArch: core:  1, cta: 1 initialized @(2,0)
GPGPU-Sim uArch: core:  2, cta: 1 initialized @(2,0)
GPGPU-Sim uArch: core:  3, cta: 1 initialized @(2,0)
GPGPU-Sim uArch: core:  4, cta: 1 initialized @(2,0)
GPGPU-Sim uArch: core:  5, cta: 1 initialized @(2,0)
GPGPU-Sim uArch: core:  6, cta: 1 initialized @(2,0)
GPGPU-Sim uArch: core:  7, cta: 1 initialized @(2,0)
GPGPU-Sim uArch: core:  8, cta: 1 initialized @(2,0)
GPGPU-Sim uArch: core:  9, cta: 1 initialized @(2,0)
GPGPU-Sim uArch: core: 10, cta: 1 initialized @(2,0)
GPGPU-Sim uArch: core: 11, cta: 1 initialized @(2,0)
GPGPU-Sim uArch: core: 12, cta: 1 initialized @(2,0)
GPGPU-Sim uArch: core: 13, cta: 1 initialized @(2,0)
GPGPU-Sim uArch: core: 14, cta: 1 initialized @(2,0)
GPGPU-Sim uArch: core:  0, cta: 1 initialized @(2,0)
GPGPU-Sim uArch: core:  1, cta: 2 initialized @(3,0)
GPGPU-Sim uArch: core:  2, cta: 2 initialized @(3,0)
GPGPU-Sim uArch: core:  3, cta: 2 initialized @(3,0)
GPGPU-Sim uArch: core:  4, cta: 2 initialized @(3,0)
GPGPU-Sim uArch: core:  5, cta: 2 initialized @(3,0)
GPGPU-Sim uArch: core:  6, cta: 2 initialized @(3,0)
GPGPU-Sim uArch: core:  7, cta: 2 initialized @(3,0)
GPGPU-Sim uArch: core:  8, cta: 2 initialized @(3,0)
GPGPU-Sim uArch: core:  9, cta: 2 initialized @(3,0)
GPGPU-Sim uArch: core: 10, cta: 2 initialized @(3,0)
GPGPU-Sim uArch: core: 11, cta: 2 initialized @(3,0)
GPGPU-Sim uArch: core: 12, cta: 2 initialized @(3,0)
GPGPU-Sim uArch: core: 13, cta: 2 initialized @(3,0)
GPGPU-Sim uArch: core: 14, cta: 2 initialized @(3,0)
GPGPU-Sim uArch: core:  0, cta: 2 initialized @(3,0)
GPGPU-Sim uArch: core:  1, cta: 3 initialized @(4,0)
GPGPU-Sim uArch: core:  2, cta: 3 initialized @(4,0)
GPGPU-Sim uArch: core:  3, cta: 3 initialized @(4,0)
GPGPU-Sim uArch: core:  4, cta: 3 initialized @(4,0)
GPGPU-Sim uArch: core:  5, cta: 3 initialized @(4,0)
GPGPU-Sim uArch: core:  6, cta: 3 initialized @(4,0)
GPGPU-Sim uArch: core:  7, cta: 3 initialized @(4,0)
GPGPU-Sim uArch: core:  8, cta: 3 initialized @(4,0)
GPGPU-Sim uArch: core:  9, cta: 3 initialized @(4,0)
GPGPU-Sim uArch: core: 10, cta: 3 initialized @(4,0)
GPGPU-Sim uArch: core: 11, cta: 3 initialized @(4,0)
GPGPU-Sim uArch: core: 12, cta: 3 initialized @(4,0)
GPGPU-Sim uArch: core: 13, cta: 3 initialized @(4,0)
GPGPU-Sim uArch: core: 14, cta: 3 initialized @(4,0)
GPGPU-Sim uArch: core:  0, cta: 3 initialized @(4,0)
GPGPU-Sim uArch: core:  1, cta: 4 initialized @(5,0)
GPGPU-Sim uArch: core:  2, cta: 4 initialized @(5,0)
GPGPU-Sim uArch: core:  3, cta: 4 initialized @(5,0)
GPGPU-Sim uArch: core:  4, cta: 4 initialized @(5,0)
GPGPU-Sim uArch: core:  5, cta: 4 initialized @(5,0)
GPGPU-Sim uArch: core:  6, cta: 4 initialized @(5,0)
GPGPU-Sim uArch: core:  7, cta: 4 initialized @(5,0)
GPGPU-Sim uArch: core:  8, cta: 4 initialized @(5,0)
GPGPU-Sim uArch: core:  9, cta: 4 initialized @(5,0)
GPGPU-Sim uArch: core: 10, cta: 4 initialized @(5,0)
GPGPU-Sim uArch: core: 11, cta: 4 initialized @(5,0)
GPGPU-Sim uArch: core: 12, cta: 4 initialized @(5,0)
GPGPU-Sim uArch: core: 13, cta: 4 initialized @(5,0)
GPGPU-Sim uArch: core: 14, cta: 4 initialized @(5,0)
GPGPU-Sim uArch: core:  0, cta: 4 initialized @(5,0)
GPGPU-Sim uArch: core:  1, cta: 5 initialized @(6,0)
GPGPU-Sim uArch: core:  2, cta: 5 initialized @(6,0)
GPGPU-Sim uArch: core:  3, cta: 5 initialized @(6,0)
GPGPU-Sim uArch: core:  4, cta: 5 initialized @(6,0)
GPGPU-Sim uArch: core:  5, cta: 5 initialized @(6,0)
GPGPU-Sim uArch: core:  6, cta: 5 initialized @(6,0)
GPGPU-Sim uArch: core:  7, cta: 5 initialized @(6,0)
GPGPU-Sim uArch: core:  8, cta: 5 initialized @(6,0)
GPGPU-Sim uArch: core:  9, cta: 5 initialized @(6,0)
GPGPU-Sim uArch: core: 10, cta: 5 initialized @(6,0)
GPGPU-Sim uArch: core: 11, cta: 5 initialized @(6,0)
GPGPU-Sim uArch: core: 12, cta: 5 initialized @(6,0)
GPGPU-Sim uArch: core: 13, cta: 5 initialized @(6,0)
GPGPU-Sim uArch: core: 14, cta: 5 initialized @(6,0)
GPGPU-Sim uArch: core:  0, cta: 5 initialized @(6,0)
GPGPU-Sim PTX: 100000 instructions simulated : ctaid=(52,0,0) tid=(191,0,0)
GPGPU-Sim uArch: cycles simulated: 500  inst.: 92000 (ipc=184.0) sim_rate=92000 (inst/sec) elapsed = 0:0:00:01 / Wed May  1 12:43:21 2019
GPGPU-Sim PTX: 200000 instructions simulated : ctaid=(56,0,0) tid=(159,0,0)
GPGPU-Sim PTX: 300000 instructions simulated : ctaid=(44,0,0) tid=(253,0,0)
GPGPU-Sim uArch: Shader 0 finished CTA #0 (1267,0), 5 CTAs running
GPGPU-Sim uArch: core:  0, cta: 0 initialized @(1268,0)
GPGPU-Sim uArch: Shader 0 finished CTA #4 (1279,0), 5 CTAs running
GPGPU-Sim uArch: Shader 0 finished CTA #5 (1279,0), 4 CTAs running
GPGPU-Sim uArch: core:  0, cta: 4 initialized @(1280,0)
GPGPU-Sim uArch: core:  0, cta: 5 initialized @(1281,0)
GPGPU-Sim uArch: Shader 3 finished CTA #4 (1285,0), 5 CTAs running
GPGPU-Sim uArch: Shader 3 finished CTA #5 (1285,0), 4 CTAs running
GPGPU-Sim uArch: Shader 3 finished CTA #0 (1285,0), 3 CTAs running
GPGPU-Sim uArch: Shader 3 finished CTA #1 (1285,0), 2 CTAs running
GPGPU-Sim uArch: Shader 3 finished CTA #2 (1285,0), 1 CTAs running
GPGPU-Sim uArch: core:  3, cta: 0 initialized @(1286,0)
GPGPU-Sim uArch: core:  3, cta: 1 initialized @(1287,0)
GPGPU-Sim uArch: Shader 0 finished CTA #1 (1287,0), 5 CTAs running
GPGPU-Sim uArch: Shader 0 finished CTA #2 (1287,0), 4 CTAs running
GPGPU-Sim uArch: Shader 0 finished CTA #3 (1287,0), 3 CTAs running
GPGPU-Sim uArch: core:  0, cta: 1 initialized @(1288,0)
GPGPU-Sim uArch: core:  3, cta: 2 initialized @(1288,0)
GPGPU-Sim uArch: core:  0, cta: 2 initialized @(1289,0)
GPGPU-Sim uArch: core:  3, cta: 4 initialized @(1289,0)
GPGPU-Sim uArch: core:  0, cta: 3 initialized @(1290,0)
GPGPU-Sim uArch: core:  3, cta: 5 initialized @(1290,0)
GPGPU-Sim uArch: Shader 4 finished CTA #5 (1291,0), 5 CTAs running
GPGPU-Sim uArch: Shader 4 finished CTA #0 (1291,0), 4 CTAs running
GPGPU-Sim uArch: Shader 4 finished CTA #1 (1291,0), 3 CTAs running
GPGPU-Sim uArch: Shader 4 finished CTA #2 (1291,0), 2 CTAs running
GPGPU-Sim uArch: core:  4, cta: 0 initialized @(1292,0)
GPGPU-Sim uArch: core:  4, cta: 1 initialized @(1293,0)
GPGPU-Sim uArch: core:  4, cta: 2 initialized @(1294,0)
GPGPU-Sim uArch: core:  4, cta: 5 initialized @(1295,0)
GPGPU-Sim uArch: Shader 2 finished CTA #5 (1297,0), 5 CTAs running
GPGPU-Sim uArch: Shader 2 finished CTA #0 (1297,0), 4 CTAs running
GPGPU-Sim uArch: Shader 2 finished CTA #1 (1297,0), 3 CTAs running
GPGPU-Sim uArch: Shader 2 finished CTA #2 (1297,0), 2 CTAs running
GPGPU-Sim uArch: core:  2, cta: 0 initialized @(1298,0)
GPGPU-Sim uArch: core:  2, cta: 1 initialized @(1299,0)
GPGPU-Sim uArch: Shader 8 finished CTA #0 (1299,0), 5 CTAs running
GPGPU-Sim uArch: core:  8, cta: 0 initialized @(1300,0)
GPGPU-Sim uArch: core:  2, cta: 2 initialized @(1300,0)
GPGPU-Sim uArch: core:  2, cta: 5 initialized @(1301,0)
GPGPU-Sim uArch: Shader 5 finished CTA #5 (1303,0), 5 CTAs running
GPGPU-Sim uArch: Shader 5 finished CTA #0 (1303,0), 4 CTAs running
GPGPU-Sim uArch: Shader 5 finished CTA #1 (1303,0), 3 CTAs running
GPGPU-Sim uArch: Shader 5 finished CTA #2 (1303,0), 2 CTAs running
GPGPU-Sim uArch: core:  5, cta: 0 initialized @(1304,0)
GPGPU-Sim uArch: core:  5, cta: 1 initialized @(1305,0)
GPGPU-Sim uArch: Shader 11 finished CTA #0 (1305,0), 5 CTAs running
GPGPU-Sim uArch: core: 11, cta: 0 initialized @(1306,0)
GPGPU-Sim uArch: core:  5, cta: 2 initialized @(1306,0)
GPGPU-Sim uArch: core:  5, cta: 5 initialized @(1307,0)
GPGPU-Sim uArch: Shader 1 finished CTA #5 (1308,0), 5 CTAs running
GPGPU-Sim uArch: core:  1, cta: 5 initialized @(1309,0)
GPGPU-Sim uArch: Shader 1 finished CTA #1 (1309,0), 5 CTAs running
GPGPU-Sim uArch: Shader 1 finished CTA #2 (1309,0), 4 CTAs running
GPGPU-Sim uArch: core:  1, cta: 1 initialized @(1310,0)
GPGPU-Sim uArch: Shader 3 finished CTA #3 (1310,0), 5 CTAs running
GPGPU-Sim uArch: core:  3, cta: 3 initialized @(1311,0)
GPGPU-Sim uArch: core:  1, cta: 2 initialized @(1311,0)
GPGPU-Sim uArch: Shader 6 finished CTA #0 (1315,0), 5 CTAs running
GPGPU-Sim uArch: Shader 6 finished CTA #1 (1315,0), 4 CTAs running
GPGPU-Sim uArch: Shader 6 finished CTA #2 (1315,0), 3 CTAs running
GPGPU-Sim uArch: Shader 6 finished CTA #3 (1315,0), 2 CTAs running
GPGPU-Sim uArch: core:  6, cta: 0 initialized @(1316,0)
GPGPU-Sim uArch: Shader 4 finished CTA #3 (1316,0), 5 CTAs running
GPGPU-Sim uArch: Shader 4 finished CTA #4 (1316,0), 4 CTAs running
GPGPU-Sim uArch: core:  4, cta: 3 initialized @(1317,0)
GPGPU-Sim uArch: core:  6, cta: 1 initialized @(1317,0)
GPGPU-Sim uArch: core:  4, cta: 4 initialized @(1318,0)
GPGPU-Sim uArch: core:  6, cta: 2 initialized @(1318,0)
GPGPU-Sim uArch: core:  6, cta: 3 initialized @(1319,0)
GPGPU-Sim uArch: Shader 8 finished CTA #5 (1321,0), 5 CTAs running
GPGPU-Sim uArch: core:  8, cta: 5 initialized @(1322,0)
GPGPU-Sim uArch: Shader 2 finished CTA #3 (1322,0), 5 CTAs running
GPGPU-Sim uArch: Shader 2 finished CTA #4 (1322,0), 4 CTAs running
GPGPU-Sim uArch: core:  2, cta: 3 initialized @(1323,0)
GPGPU-Sim uArch: Shader 11 finished CTA #4 (1323,0), 5 CTAs running
GPGPU-Sim uArch: core: 11, cta: 4 initialized @(1324,0)
GPGPU-Sim uArch: core:  2, cta: 4 initialized @(1324,0)
GPGPU-Sim uArch: Shader 5 finished CTA #3 (1328,0), 5 CTAs running
GPGPU-Sim uArch: Shader 5 finished CTA #4 (1328,0), 4 CTAs running
GPGPU-Sim uArch: core:  5, cta: 3 initialized @(1329,0)
GPGPU-Sim uArch: Shader 8 finished CTA #1 (1329,0), 5 CTAs running
GPGPU-Sim uArch: Shader 8 finished CTA #2 (1329,0), 4 CTAs running
GPGPU-Sim uArch: Shader 8 finished CTA #3 (1329,0), 3 CTAs running
GPGPU-Sim uArch: Shader 8 finished CTA #4 (1329,0), 2 CTAs running
GPGPU-Sim uArch: core:  8, cta: 1 initialized @(1330,0)
GPGPU-Sim uArch: core:  5, cta: 4 initialized @(1330,0)
GPGPU-Sim uArch: core:  8, cta: 2 initialized @(1331,0)
GPGPU-Sim uArch: core:  8, cta: 3 initialized @(1332,0)
GPGPU-Sim uArch: core:  8, cta: 4 initialized @(1333,0)
GPGPU-Sim uArch: Shader 7 finished CTA #5 (1333,0), 5 CTAs running
GPGPU-Sim uArch: Shader 7 finished CTA #0 (1333,0), 4 CTAs running
GPGPU-Sim uArch: Shader 7 finished CTA #1 (1333,0), 3 CTAs running
GPGPU-Sim uArch: Shader 7 finished CTA #2 (1333,0), 2 CTAs running
GPGPU-Sim uArch: core:  7, cta: 0 initialized @(1334,0)
GPGPU-Sim uArch: Shader 1 finished CTA #3 (1334,0), 5 CTAs running
GPGPU-Sim uArch: Shader 1 finished CTA #4 (1334,0), 4 CTAs running
GPGPU-Sim uArch: core:  1, cta: 3 initialized @(1335,0)
GPGPU-Sim uArch: core:  7, cta: 1 initialized @(1335,0)
GPGPU-Sim uArch: Shader 11 finished CTA #1 (1335,0), 5 CTAs running
GPGPU-Sim uArch: Shader 11 finished CTA #2 (1335,0), 4 CTAs running
GPGPU-Sim uArch: Shader 11 finished CTA #3 (1335,0), 3 CTAs running
GPGPU-Sim uArch: core: 11, cta: 1 initialized @(1336,0)
GPGPU-Sim uArch: core:  1, cta: 4 initialized @(1336,0)
GPGPU-Sim uArch: core:  7, cta: 2 initialized @(1336,0)
GPGPU-Sim uArch: core: 11, cta: 2 initialized @(1337,0)
GPGPU-Sim uArch: core:  7, cta: 5 initialized @(1337,0)
GPGPU-Sim uArch: core: 11, cta: 3 initialized @(1338,0)
GPGPU-Sim uArch: Shader 13 finished CTA #0 (1339,0), 5 CTAs running
GPGPU-Sim uArch: Shader 13 finished CTA #1 (1339,0), 4 CTAs running
GPGPU-Sim uArch: Shader 13 finished CTA #2 (1339,0), 3 CTAs running
GPGPU-Sim uArch: Shader 13 finished CTA #3 (1339,0), 2 CTAs running
GPGPU-Sim uArch: core: 13, cta: 0 initialized @(1340,0)
GPGPU-Sim uArch: core: 13, cta: 1 initialized @(1341,0)
GPGPU-Sim uArch: core: 13, cta: 2 initialized @(1342,0)
GPGPU-Sim uArch: core: 13, cta: 3 initialized @(1343,0)
GPGPU-Sim uArch: Shader 11 finished CTA #5 (1343,0), 5 CTAs running
GPGPU-Sim uArch: core: 11, cta: 5 initialized @(1344,0)
GPGPU-Sim uArch: Shader 10 finished CTA #5 (1345,0), 5 CTAs running
GPGPU-Sim uArch: Shader 10 finished CTA #0 (1345,0), 4 CTAs running
GPGPU-Sim uArch: Shader 10 finished CTA #1 (1345,0), 3 CTAs running
GPGPU-Sim uArch: Shader 10 finished CTA #2 (1345,0), 2 CTAs running
GPGPU-Sim uArch: core: 10, cta: 0 initialized @(1346,0)
GPGPU-Sim uArch: core: 10, cta: 1 initialized @(1347,0)
GPGPU-Sim uArch: core: 10, cta: 2 initialized @(1348,0)
GPGPU-Sim uArch: Shader 6 finished CTA #4 (1348,0), 5 CTAs running
GPGPU-Sim uArch: Shader 6 finished CTA #5 (1348,0), 4 CTAs running
GPGPU-Sim uArch: core:  6, cta: 4 initialized @(1349,0)
GPGPU-Sim uArch: core: 10, cta: 5 initialized @(1349,0)
GPGPU-Sim uArch: core:  6, cta: 5 initialized @(1350,0)
GPGPU-Sim uArch: Shader 12 finished CTA #0 (1351,0), 5 CTAs running
GPGPU-Sim uArch: Shader 12 finished CTA #1 (1351,0), 4 CTAs running
GPGPU-Sim uArch: Shader 14 finished CTA #5 (1351,0), 5 CTAs running
GPGPU-Sim uArch: Shader 14 finished CTA #0 (1351,0), 4 CTAs running
GPGPU-Sim uArch: Shader 14 finished CTA #1 (1351,0), 3 CTAs running
GPGPU-Sim uArch: Shader 14 finished CTA #2 (1351,0), 2 CTAs running
GPGPU-Sim uArch: core: 12, cta: 0 initialized @(1352,0)
GPGPU-Sim uArch: core: 14, cta: 0 initialized @(1352,0)
GPGPU-Sim uArch: core: 12, cta: 1 initialized @(1353,0)
GPGPU-Sim uArch: core: 14, cta: 1 initialized @(1353,0)
GPGPU-Sim uArch: core: 14, cta: 2 initialized @(1354,0)
GPGPU-Sim uArch: core: 14, cta: 5 initialized @(1355,0)
GPGPU-Sim uArch: Shader 9 finished CTA #5 (1357,0), 5 CTAs running
GPGPU-Sim uArch: Shader 9 finished CTA #0 (1357,0), 4 CTAs running
GPGPU-Sim uArch: Shader 9 finished CTA #1 (1357,0), 3 CTAs running
GPGPU-Sim uArch: Shader 9 finished CTA #2 (1357,0), 2 CTAs running
GPGPU-Sim uArch: core:  9, cta: 0 initialized @(1358,0)
GPGPU-Sim uArch: Shader 7 finished CTA #3 (1358,0), 5 CTAs running
GPGPU-Sim uArch: Shader 7 finished CTA #4 (1358,0), 4 CTAs running
GPGPU-Sim uArch: core:  7, cta: 3 initialized @(1359,0)
GPGPU-Sim uArch: core:  9, cta: 1 initialized @(1359,0)
GPGPU-Sim uArch: core:  7, cta: 4 initialized @(1360,0)
GPGPU-Sim uArch: core:  9, cta: 2 initialized @(1360,0)
GPGPU-Sim uArch: core:  9, cta: 5 initialized @(1361,0)
GPGPU-Sim uArch: Shader 12 finished CTA #4 (1363,0), 5 CTAs running
GPGPU-Sim uArch: Shader 12 finished CTA #5 (1363,0), 4 CTAs running
GPGPU-Sim uArch: core: 12, cta: 4 initialized @(1364,0)
GPGPU-Sim uArch: core: 12, cta: 5 initialized @(1365,0)
GPGPU-Sim uArch: Shader 10 finished CTA #3 (1370,0), 5 CTAs running
GPGPU-Sim uArch: Shader 10 finished CTA #4 (1370,0), 4 CTAs running
GPGPU-Sim uArch: core: 10, cta: 3 initialized @(1371,0)
GPGPU-Sim uArch: core: 10, cta: 4 initialized @(1372,0)
GPGPU-Sim uArch: Shader 13 finished CTA #4 (1372,0), 5 CTAs running
GPGPU-Sim uArch: Shader 13 finished CTA #5 (1372,0), 4 CTAs running
GPGPU-Sim uArch: core: 13, cta: 4 initialized @(1373,0)
GPGPU-Sim uArch: core: 13, cta: 5 initialized @(1374,0)
GPGPU-Sim uArch: Shader 14 finished CTA #3 (1376,0), 5 CTAs running
GPGPU-Sim uArch: Shader 14 finished CTA #4 (1376,0), 4 CTAs running
GPGPU-Sim uArch: core: 14, cta: 3 initialized @(1377,0)
GPGPU-Sim uArch: core: 14, cta: 4 initialized @(1378,0)
GPGPU-Sim uArch: Shader 12 finished CTA #2 (1379,0), 5 CTAs running
GPGPU-Sim uArch: Shader 12 finished CTA #3 (1379,0), 4 CTAs running
GPGPU-Sim uArch: core: 12, cta: 2 initialized @(1380,0)
GPGPU-Sim uArch: core: 12, cta: 3 initialized @(1381,0)
GPGPU-Sim uArch: Shader 9 finished CTA #3 (1382,0), 5 CTAs running
GPGPU-Sim uArch: Shader 9 finished CTA #4 (1382,0), 4 CTAs running
GPGPU-Sim uArch: core:  9, cta: 3 initialized @(1383,0)
GPGPU-Sim uArch: core:  9, cta: 4 initialized @(1384,0)
GPGPU-Sim PTX: 400000 instructions simulated : ctaid=(159,0,0) tid=(182,0,0)
GPGPU-Sim PTX: 500000 instructions simulated : ctaid=(114,0,0) tid=(85,0,0)
GPGPU-Sim uArch: cycles simulated: 1500  inst.: 459048 (ipc=306.0) sim_rate=229524 (inst/sec) elapsed = 0:0:00:02 / Wed May  1 12:43:23 2019
GPGPU-Sim PTX: 600000 instructions simulated : ctaid=(175,0,0) tid=(245,0,0)
GPGPU-Sim uArch: Shader 1 finished CTA #5 (1763,0), 5 CTAs running
GPGPU-Sim uArch: core:  1, cta: 5 initialized @(1764,0)
GPGPU-Sim uArch: Shader 0 finished CTA #0 (1769,0), 5 CTAs running
GPGPU-Sim uArch: core:  0, cta: 0 initialized @(1770,0)
GPGPU-Sim uArch: Shader 3 finished CTA #0 (1778,0), 5 CTAs running
GPGPU-Sim uArch: core:  3, cta: 0 initialized @(1779,0)
GPGPU-Sim uArch: Shader 4 finished CTA #0 (1788,0), 5 CTAs running
GPGPU-Sim uArch: core:  4, cta: 0 initialized @(1789,0)
GPGPU-Sim uArch: Shader 2 finished CTA #0 (1792,0), 5 CTAs running
GPGPU-Sim uArch: core:  2, cta: 0 initialized @(1793,0)
GPGPU-Sim uArch: Shader 1 finished CTA #1 (1801,0), 5 CTAs running
GPGPU-Sim uArch: Shader 1 finished CTA #2 (1801,0), 4 CTAs running
GPGPU-Sim uArch: core:  1, cta: 1 initialized @(1802,0)
GPGPU-Sim uArch: Shader 3 finished CTA #2 (1802,0), 5 CTAs running
GPGPU-Sim uArch: Shader 4 finished CTA #1 (1802,0), 5 CTAs running
GPGPU-Sim uArch: core:  3, cta: 2 initialized @(1803,0)
GPGPU-Sim uArch: core:  4, cta: 1 initialized @(1803,0)
GPGPU-Sim uArch: core:  1, cta: 2 initialized @(1803,0)
GPGPU-Sim uArch: Shader 5 finished CTA #1 (1807,0), 5 CTAs running
GPGPU-Sim uArch: core:  5, cta: 1 initialized @(1808,0)
GPGPU-Sim uArch: Shader 11 finished CTA #0 (1811,0), 5 CTAs running
GPGPU-Sim uArch: core: 11, cta: 0 initialized @(1812,0)
GPGPU-Sim uArch: Shader 8 finished CTA #0 (1812,0), 5 CTAs running
GPGPU-Sim uArch: core:  8, cta: 0 initialized @(1813,0)
GPGPU-Sim uArch: Shader 6 finished CTA #0 (1818,0), 5 CTAs running
GPGPU-Sim uArch: Shader 6 finished CTA #1 (1818,0), 4 CTAs running
GPGPU-Sim uArch: core:  6, cta: 0 initialized @(1819,0)
GPGPU-Sim uArch: core:  6, cta: 1 initialized @(1820,0)
GPGPU-Sim uArch: Shader 0 finished CTA #4 (1829,0), 5 CTAs running
GPGPU-Sim uArch: core:  0, cta: 4 initialized @(1830,0)
GPGPU-Sim uArch: Shader 13 finished CTA #0 (1833,0), 5 CTAs running
GPGPU-Sim uArch: core: 13, cta: 0 initialized @(1834,0)
GPGPU-Sim uArch: Shader 5 finished CTA #0 (1836,0), 5 CTAs running
GPGPU-Sim uArch: core:  5, cta: 0 initialized @(1837,0)
GPGPU-Sim uArch: Shader 2 finished CTA #2 (1844,0), 5 CTAs running
GPGPU-Sim uArch: core:  2, cta: 2 initialized @(1845,0)
GPGPU-Sim uArch: Shader 7 finished CTA #0 (1846,0), 5 CTAs running
GPGPU-Sim uArch: core:  7, cta: 0 initialized @(1847,0)
GPGPU-Sim uArch: Shader 14 finished CTA #0 (1848,0), 5 CTAs running
GPGPU-Sim uArch: core: 14, cta: 0 initialized @(1849,0)
GPGPU-Sim uArch: Shader 3 finished CTA #1 (1852,0), 5 CTAs running
GPGPU-Sim uArch: core:  3, cta: 1 initialized @(1853,0)
GPGPU-Sim uArch: Shader 3 finished CTA #4 (1860,0), 5 CTAs running
GPGPU-Sim uArch: core:  3, cta: 4 initialized @(1861,0)
GPGPU-Sim uArch: Shader 0 finished CTA #5 (1863,0), 5 CTAs running
GPGPU-Sim uArch: core:  0, cta: 5 initialized @(1864,0)
GPGPU-Sim uArch: Shader 2 finished CTA #1 (1864,0), 5 CTAs running
GPGPU-Sim uArch: core:  2, cta: 1 initialized @(1865,0)
GPGPU-Sim uArch: Shader 11 finished CTA #4 (1868,0), 5 CTAs running
GPGPU-Sim uArch: core: 11, cta: 4 initialized @(1869,0)
GPGPU-Sim uArch: Shader 12 finished CTA #0 (1870,0), 5 CTAs running
GPGPU-Sim uArch: core: 12, cta: 0 initialized @(1871,0)
GPGPU-Sim uArch: Shader 0 finished CTA #1 (1871,0), 5 CTAs running
GPGPU-Sim uArch: core:  0, cta: 1 initialized @(1872,0)
GPGPU-Sim uArch: Shader 5 finished CTA #2 (1872,0), 5 CTAs running
GPGPU-Sim uArch: core:  5, cta: 2 initialized @(1873,0)
GPGPU-Sim uArch: Shader 6 finished CTA #2 (1873,0), 5 CTAs running
GPGPU-Sim uArch: Shader 6 finished CTA #3 (1873,0), 4 CTAs running
GPGPU-Sim uArch: core:  6, cta: 2 initialized @(1874,0)
GPGPU-Sim uArch: core:  6, cta: 3 initialized @(1875,0)
GPGPU-Sim uArch: Shader 10 finished CTA #0 (1875,0), 5 CTAs running
GPGPU-Sim uArch: core: 10, cta: 0 initialized @(1876,0)
GPGPU-Sim uArch: Shader 5 finished CTA #5 (1876,0), 5 CTAs running
GPGPU-Sim uArch: Shader 8 finished CTA #5 (1876,0), 5 CTAs running
GPGPU-Sim uArch: core:  5, cta: 5 initialized @(1877,0)
GPGPU-Sim uArch: core:  8, cta: 5 initialized @(1877,0)
GPGPU-Sim uArch: Shader 2 finished CTA #5 (1881,0), 5 CTAs running
GPGPU-Sim uArch: core:  2, cta: 5 initialized @(1882,0)
GPGPU-Sim uArch: Shader 4 finished CTA #5 (1882,0), 5 CTAs running
GPGPU-Sim uArch: core:  4, cta: 5 initialized @(1883,0)
GPGPU-Sim uArch: Shader 1 finished CTA #3 (1885,0), 5 CTAs running
GPGPU-Sim uArch: core:  1, cta: 3 initialized @(1886,0)
GPGPU-Sim uArch: Shader 14 finished CTA #1 (1888,0), 5 CTAs running
GPGPU-Sim uArch: core: 14, cta: 1 initialized @(1889,0)
GPGPU-Sim uArch: Shader 4 finished CTA #2 (1895,0), 5 CTAs running
GPGPU-Sim PTX: 700000 instructions simulated : ctaid=(197,0,0) tid=(109,0,0)
GPGPU-Sim uArch: core:  4, cta: 2 initialized @(1896,0)
GPGPU-Sim uArch: Shader 7 finished CTA #1 (1898,0), 5 CTAs running
GPGPU-Sim uArch: Shader 7 finished CTA #2 (1898,0), 4 CTAs running
GPGPU-Sim uArch: core:  7, cta: 1 initialized @(1899,0)
GPGPU-Sim uArch: Shader 10 finished CTA #1 (1899,0), 5 CTAs running
GPGPU-Sim uArch: Shader 13 finished CTA #1 (1899,0), 5 CTAs running
GPGPU-Sim uArch: Shader 13 finished CTA #2 (1899,0), 4 CTAs running
GPGPU-Sim uArch: Shader 13 finished CTA #3 (1899,0), 3 CTAs running
GPGPU-Sim uArch: core: 10, cta: 1 initialized @(1900,0)
GPGPU-Sim uArch: core: 13, cta: 1 initialized @(1900,0)
GPGPU-Sim uArch: core:  7, cta: 2 initialized @(1900,0)
GPGPU-Sim uArch: core: 13, cta: 2 initialized @(1901,0)
GPGPU-Sim uArch: core: 13, cta: 3 initialized @(1902,0)
GPGPU-Sim uArch: Shader 9 finished CTA #0 (1909,0), 5 CTAs running
GPGPU-Sim uArch: core:  9, cta: 0 initialized @(1910,0)
GPGPU-Sim uArch: Shader 8 finished CTA #1 (1912,0), 5 CTAs running
GPGPU-Sim uArch: Shader 8 finished CTA #2 (1912,0), 4 CTAs running
GPGPU-Sim uArch: core:  8, cta: 1 initialized @(1913,0)
GPGPU-Sim uArch: core:  8, cta: 2 initialized @(1914,0)
GPGPU-Sim uArch: Shader 9 finished CTA #1 (1932,0), 5 CTAs running
GPGPU-Sim uArch: Shader 9 finished CTA #2 (1932,0), 4 CTAs running
GPGPU-Sim uArch: Shader 14 finished CTA #5 (1932,0), 5 CTAs running
GPGPU-Sim uArch: core:  9, cta: 1 initialized @(1933,0)
GPGPU-Sim uArch: core: 14, cta: 5 initialized @(1933,0)
GPGPU-Sim uArch: core:  9, cta: 2 initialized @(1934,0)
GPGPU-Sim uArch: Shader 10 finished CTA #2 (1934,0), 5 CTAs running
GPGPU-Sim uArch: core: 10, cta: 2 initialized @(1935,0)
GPGPU-Sim uArch: Shader 4 finished CTA #3 (1939,0), 5 CTAs running
GPGPU-Sim uArch: Shader 11 finished CTA #3 (1939,0), 5 CTAs running
GPGPU-Sim uArch: core: 11, cta: 3 initialized @(1940,0)
GPGPU-Sim uArch: core:  4, cta: 3 initialized @(1940,0)
GPGPU-Sim uArch: Shader 9 finished CTA #5 (1940,0), 5 CTAs running
GPGPU-Sim uArch: core:  9, cta: 5 initialized @(1941,0)
GPGPU-Sim uArch: Shader 0 finished CTA #2 (1944,0), 5 CTAs running
GPGPU-Sim uArch: core:  0, cta: 2 initialized @(1945,0)
GPGPU-Sim uArch: Shader 7 finished CTA #5 (1948,0), 5 CTAs running
GPGPU-Sim uArch: core:  7, cta: 5 initialized @(1949,0)
GPGPU-Sim uArch: Shader 2 finished CTA #3 (1949,0), 5 CTAs running
GPGPU-Sim uArch: core:  2, cta: 3 initialized @(1950,0)
GPGPU-Sim uArch: Shader 12 finished CTA #1 (1951,0), 5 CTAs running
GPGPU-Sim uArch: core: 12, cta: 1 initialized @(1952,0)
GPGPU-Sim uArch: Shader 11 finished CTA #1 (1959,0), 5 CTAs running
GPGPU-Sim uArch: Shader 11 finished CTA #2 (1959,0), 4 CTAs running
GPGPU-Sim uArch: core: 11, cta: 1 initialized @(1960,0)
GPGPU-Sim uArch: core: 11, cta: 2 initialized @(1961,0)
GPGPU-Sim uArch: Shader 12 finished CTA #4 (1967,0), 5 CTAs running
GPGPU-Sim uArch: Shader 12 finished CTA #5 (1967,0), 4 CTAs running
GPGPU-Sim uArch: core: 12, cta: 4 initialized @(1968,0)
GPGPU-Sim uArch: core: 12, cta: 5 initialized @(1969,0)
GPGPU-Sim uArch: Shader 7 finished CTA #3 (1972,0), 5 CTAs running
GPGPU-Sim uArch: core:  7, cta: 3 initialized @(1973,0)
GPGPU-Sim uArch: Shader 10 finished CTA #5 (1982,0), 5 CTAs running
GPGPU-Sim uArch: core: 10, cta: 5 initialized @(1983,0)
GPGPU-Sim uArch: Shader 1 finished CTA #4 (1983,0), 5 CTAs running
GPGPU-Sim uArch: Shader 4 finished CTA #4 (1983,0), 5 CTAs running
GPGPU-Sim uArch: core:  1, cta: 4 initialized @(1984,0)
GPGPU-Sim uArch: core:  4, cta: 4 initialized @(1984,0)
GPGPU-Sim uArch: Shader 3 finished CTA #5 (1984,0), 5 CTAs running
GPGPU-Sim uArch: Shader 14 finished CTA #2 (1984,0), 5 CTAs running
GPGPU-Sim uArch: Shader 14 finished CTA #3 (1984,0), 4 CTAs running
GPGPU-Sim uArch: core: 14, cta: 2 initialized @(1985,0)
GPGPU-Sim uArch: core:  3, cta: 5 initialized @(1985,0)
GPGPU-Sim uArch: core: 14, cta: 3 initialized @(1986,0)
GPGPU-Sim uArch: Shader 0 finished CTA #3 (1987,0), 5 CTAs running
GPGPU-Sim uArch: core:  0, cta: 3 initialized @(1988,0)
GPGPU-Sim uArch: Shader 8 finished CTA #3 (1993,0), 5 CTAs running
GPGPU-Sim uArch: core:  8, cta: 3 initialized @(1994,0)
GPGPU-Sim uArch: Shader 6 finished CTA #4 (1995,0), 5 CTAs running
GPGPU-Sim uArch: core:  6, cta: 4 initialized @(1996,0)
GPGPU-Sim uArch: Shader 2 finished CTA #4 (1996,0), 5 CTAs running
GPGPU-Sim uArch: core:  2, cta: 4 initialized @(1997,0)
GPGPU-Sim uArch: cycles simulated: 2000  inst.: 725041 (ipc=362.5) sim_rate=241680 (inst/sec) elapsed = 0:0:00:03 / Wed May  1 12:43:24 2019
GPGPU-Sim uArch: Shader 5 finished CTA #3 (2004,0), 5 CTAs running
GPGPU-Sim uArch: Shader 5 finished CTA #4 (2004,0), 4 CTAs running
GPGPU-Sim uArch: core:  5, cta: 3 initialized @(2005,0)
GPGPU-Sim uArch: Shader 9 finished CTA #3 (2005,0), 5 CTAs running
GPGPU-Sim uArch: core:  9, cta: 3 initialized @(2006,0)
GPGPU-Sim uArch: core:  5, cta: 4 initialized @(2006,0)
GPGPU-Sim uArch: Shader 10 finished CTA #3 (2006,0), 5 CTAs running
GPGPU-Sim uArch: core: 10, cta: 3 initialized @(2007,0)
GPGPU-Sim uArch: Shader 3 finished CTA #3 (2008,0), 5 CTAs running
GPGPU-Sim uArch: Shader 13 finished CTA #4 (2015,0), 5 CTAs running
GPGPU-Sim PTX: 800000 instructions simulated : ctaid=(195,0,0) tid=(75,0,0)
GPGPU-Sim uArch: Shader 11 finished CTA #5 (2018,0), 5 CTAs running
GPGPU-Sim uArch: Shader 7 finished CTA #4 (2020,0), 5 CTAs running
GPGPU-Sim uArch: Shader 12 finished CTA #2 (2027,0), 5 CTAs running
GPGPU-Sim uArch: Shader 12 finished CTA #3 (2027,0), 4 CTAs running
GPGPU-Sim uArch: Shader 8 finished CTA #4 (2034,0), 5 CTAs running
GPGPU-Sim uArch: Shader 6 finished CTA #5 (2039,0), 5 CTAs running
GPGPU-Sim uArch: Shader 13 finished CTA #5 (2048,0), 4 CTAs running
GPGPU-Sim uArch: Shader 10 finished CTA #4 (2050,0), 5 CTAs running
GPGPU-Sim uArch: Shader 9 finished CTA #4 (2053,0), 5 CTAs running
GPGPU-Sim uArch: Shader 14 finished CTA #4 (2076,0), 5 CTAs running
GPGPU-Sim PTX: 900000 instructions simulated : ctaid=(248,0,0) tid=(43,0,0)
GPGPU-Sim uArch: Shader 1 finished CTA #5 (2185,0), 5 CTAs running
GPGPU-Sim uArch: Shader 0 finished CTA #0 (2205,0), 5 CTAs running
GPGPU-Sim uArch: Shader 5 finished CTA #1 (2245,0), 5 CTAs running
GPGPU-Sim uArch: Shader 3 finished CTA #0 (2246,0), 4 CTAs running
GPGPU-Sim uArch: Shader 11 finished CTA #0 (2247,0), 4 CTAs running
GPGPU-Sim uArch: Shader 4 finished CTA #0 (2254,0), 5 CTAs running
GPGPU-Sim uArch: Shader 1 finished CTA #1 (2259,0), 4 CTAs running
GPGPU-Sim uArch: Shader 2 finished CTA #0 (2262,0), 5 CTAs running
GPGPU-Sim uArch: Shader 8 finished CTA #0 (2263,0), 4 CTAs running
GPGPU-Sim uArch: Shader 3 finished CTA #2 (2305,0), 3 CTAs running
GPGPU-Sim uArch: Shader 1 finished CTA #2 (2308,0), 3 CTAs running
GPGPU-Sim uArch: Shader 5 finished CTA #0 (2310,0), 4 CTAs running
GPGPU-Sim uArch: Shader 6 finished CTA #0 (2312,0), 4 CTAs running
GPGPU-Sim uArch: Shader 13 finished CTA #0 (2313,0), 3 CTAs running
GPGPU-Sim uArch: Shader 4 finished CTA #1 (2316,0), 4 CTAs running
GPGPU-Sim uArch: Shader 6 finished CTA #1 (2316,0), 3 CTAs running
GPGPU-Sim uArch: Shader 12 finished CTA #0 (2317,0), 3 CTAs running
GPGPU-Sim uArch: Shader 14 finished CTA #0 (2322,0), 4 CTAs running
GPGPU-Sim uArch: Shader 7 finished CTA #0 (2326,0), 4 CTAs running
GPGPU-Sim uArch: Shader 1 finished CTA #3 (2338,0), 2 CTAs running
GPGPU-Sim uArch: Shader 11 finished CTA #4 (2341,0), 3 CTAs running
GPGPU-Sim uArch: Shader 10 finished CTA #0 (2356,0), 4 CTAs running
GPGPU-Sim uArch: Shader 0 finished CTA #4 (2358,0), 4 CTAs running
GPGPU-Sim uArch: Shader 2 finished CTA #2 (2358,0), 4 CTAs running
GPGPU-Sim uArch: Shader 3 finished CTA #1 (2369,0), 2 CTAs running
GPGPU-Sim uArch: Shader 3 finished CTA #4 (2373,0), 1 CTAs running
GPGPU-Sim uArch: Shader 8 finished CTA #5 (2377,0), 3 CTAs running
GPGPU-Sim uArch: Shader 14 finished CTA #1 (2382,0), 3 CTAs running
GPGPU-Sim uArch: Shader 0 finished CTA #5 (2383,0), 3 CTAs running
GPGPU-Sim uArch: Shader 13 finished CTA #1 (2383,0), 2 CTAs running
GPGPU-Sim uArch: Shader 5 finished CTA #2 (2386,0), 3 CTAs running
GPGPU-Sim uArch: Shader 0 finished CTA #1 (2387,0), 2 CTAs running
GPGPU-Sim uArch: Shader 2 finished CTA #1 (2390,0), 3 CTAs running
GPGPU-Sim uArch: Shader 9 finished CTA #0 (2391,0), 4 CTAs running
GPGPU-Sim uArch: Shader 6 finished CTA #2 (2400,0), 2 CTAs running
GPGPU-Sim uArch: Shader 1 finished CTA #4 (2402,0), 1 CTAs running
GPGPU-Sim uArch: Shader 13 finished CTA #2 (2404,0), 1 CTAs running
GPGPU-Sim uArch: Shader 4 finished CTA #5 (2406,0), 3 CTAs running
GPGPU-Sim uArch: Shader 6 finished CTA #3 (2406,0), 1 CTAs running
GPGPU-Sim uArch: Shader 8 finished CTA #1 (2406,0), 2 CTAs running
GPGPU-Sim uArch: Shader 7 finished CTA #1 (2407,0), 3 CTAs running
GPGPU-Sim uArch: Shader 10 finished CTA #1 (2409,0), 3 CTAs running
GPGPU-Sim uArch: Shader 8 finished CTA #2 (2417,0), 1 CTAs running
GPGPU-Sim uArch: Shader 7 finished CTA #2 (2418,0), 2 CTAs running
GPGPU-Sim uArch: Shader 4 finished CTA #2 (2419,0), 2 CTAs running
GPGPU-Sim uArch: Shader 5 finished CTA #5 (2423,0), 2 CTAs running
GPGPU-Sim uArch: Shader 12 finished CTA #1 (2429,0), 2 CTAs running
GPGPU-Sim uArch: Shader 13 finished CTA #3 (2429,0), 0 CTAs running
GPGPU-Sim uArch: Shader 13 empty (release kernel 1 '_Z6KernelP4NodePiPbS2_S1_S2_i').
GPGPU-Sim uArch: Shader 2 finished CTA #5 (2431,0), 2 CTAs running
GPGPU-Sim uArch: Shader 3 finished CTA #5 (2436,0), 0 CTAs running
GPGPU-Sim uArch: Shader 3 empty (release kernel 1 '_Z6KernelP4NodePiPbS2_S1_S2_i').
GPGPU-Sim uArch: Shader 12 finished CTA #4 (2439,0), 1 CTAs running
GPGPU-Sim uArch: Shader 0 finished CTA #2 (2443,0), 1 CTAs running
GPGPU-Sim uArch: Shader 10 finished CTA #2 (2443,0), 2 CTAs running
GPGPU-Sim uArch: Shader 11 finished CTA #3 (2448,0), 2 CTAs running
GPGPU-Sim uArch: Shader 14 finished CTA #5 (2449,0), 2 CTAs running
GPGPU-Sim uArch: Shader 4 finished CTA #3 (2451,0), 1 CTAs running
GPGPU-Sim uArch: Shader 11 finished CTA #1 (2453,0), 1 CTAs running
GPGPU-Sim uArch: Shader 6 finished CTA #4 (2455,0), 0 CTAs running
GPGPU-Sim uArch: Shader 6 empty (release kernel 1 '_Z6KernelP4NodePiPbS2_S1_S2_i').
GPGPU-Sim uArch: Shader 9 finished CTA #1 (2459,0), 3 CTAs running
GPGPU-Sim uArch: Shader 2 finished CTA #3 (2460,0), 1 CTAs running
GPGPU-Sim uArch: Shader 11 finished CTA #2 (2461,0), 0 CTAs running
GPGPU-Sim uArch: Shader 11 empty (release kernel 1 '_Z6KernelP4NodePiPbS2_S1_S2_i').
GPGPU-Sim uArch: Shader 8 finished CTA #3 (2462,0), 0 CTAs running
GPGPU-Sim uArch: Shader 8 empty (release kernel 1 '_Z6KernelP4NodePiPbS2_S1_S2_i').
GPGPU-Sim uArch: Shader 12 finished CTA #5 (2467,0), 0 CTAs running
GPGPU-Sim uArch: Shader 12 empty (release kernel 1 '_Z6KernelP4NodePiPbS2_S1_S2_i').
GPGPU-Sim uArch: Shader 9 finished CTA #2 (2470,0), 2 CTAs running
GPGPU-Sim uArch: Shader 0 finished CTA #3 (2471,0), 0 CTAs running
GPGPU-Sim uArch: Shader 0 empty (release kernel 1 '_Z6KernelP4NodePiPbS2_S1_S2_i').
GPGPU-Sim uArch: Shader 14 finished CTA #2 (2471,0), 1 CTAs running
GPGPU-Sim uArch: Shader 7 finished CTA #5 (2473,0), 1 CTAs running
GPGPU-Sim uArch: Shader 9 finished CTA #5 (2477,0), 1 CTAs running
GPGPU-Sim uArch: Shader 4 finished CTA #4 (2481,0), 0 CTAs running
GPGPU-Sim uArch: Shader 4 empty (release kernel 1 '_Z6KernelP4NodePiPbS2_S1_S2_i').
GPGPU-Sim uArch: Shader 7 finished CTA #3 (2482,0), 0 CTAs running
GPGPU-Sim uArch: Shader 7 empty (release kernel 1 '_Z6KernelP4NodePiPbS2_S1_S2_i').
GPGPU-Sim uArch: Shader 14 finished CTA #3 (2484,0), 0 CTAs running
GPGPU-Sim uArch: Shader 14 empty (release kernel 1 '_Z6KernelP4NodePiPbS2_S1_S2_i').
GPGPU-Sim uArch: Shader 2 finished CTA #4 (2485,0), 0 CTAs running
GPGPU-Sim uArch: Shader 2 empty (release kernel 1 '_Z6KernelP4NodePiPbS2_S1_S2_i').
GPGPU-Sim uArch: Shader 5 finished CTA #3 (2491,0), 1 CTAs running
GPGPU-Sim uArch: Shader 5 finished CTA #4 (2498,0), 0 CTAs running
GPGPU-Sim uArch: Shader 5 empty (release kernel 1 '_Z6KernelP4NodePiPbS2_S1_S2_i').
GPGPU-Sim uArch: cycles simulated: 2500  inst.: 916693 (ipc=366.7) sim_rate=229173 (inst/sec) elapsed = 0:0:00:04 / Wed May  1 12:43:25 2019
GPGPU-Sim uArch: Shader 10 finished CTA #3 (2505,0), 1 CTAs running
GPGPU-Sim uArch: Shader 10 finished CTA #5 (2507,0), 0 CTAs running
GPGPU-Sim uArch: Shader 10 empty (release kernel 1 '_Z6KernelP4NodePiPbS2_S1_S2_i').
GPGPU-Sim uArch: Shader 9 finished CTA #3 (2521,0), 0 CTAs running
GPGPU-Sim uArch: Shader 9 empty (release kernel 1 '_Z6KernelP4NodePiPbS2_S1_S2_i').
GPGPU-Sim uArch: Shader 1 finished CTA #0 (5947,0), 0 CTAs running
GPGPU-Sim uArch: Shader 1 empty (release kernel 1 '_Z6KernelP4NodePiPbS2_S1_S2_i').
GPGPU-Sim uArch: GPU detected kernel '_Z6KernelP4NodePiPbS2_S1_S2_i' finished on shader 1.
kernel_name = _Z6KernelP4NodePiPbS2_S1_S2_i 
kernel_launch_uid = 1 
gpu_sim_cycle = 5948
gpu_sim_insn = 917736
gpu_ipc =     154.2932
gpu_tot_sim_cycle = 5948
gpu_tot_sim_insn = 917736
gpu_tot_ipc =     154.2932
gpu_tot_issued_cta = 0
gpu_stall_dramfull = 291
gpu_stall_icnt2sh    = 207
gpu_total_sim_rate=229434

========= Core cache stats =========
L1I_cache:
	L1I_total_cache_accesses = 19521
	L1I_total_cache_misses = 962
	L1I_total_cache_miss_rate = 0.0493
	L1I_total_cache_pending_hits = 0
	L1I_total_cache_reservation_fails = 6682
L1D_cache:
	L1D_cache_core[0]: Access = 144, Miss = 36, Miss_rate = 0.250, Pending_hits = 108, Reservation_fails = 0
	L1D_cache_core[1]: Access = 196, Miss = 68, Miss_rate = 0.347, Pending_hits = 96, Reservation_fails = 0
	L1D_cache_core[2]: Access = 144, Miss = 36, Miss_rate = 0.250, Pending_hits = 108, Reservation_fails = 0
	L1D_cache_core[3]: Access = 136, Miss = 34, Miss_rate = 0.250, Pending_hits = 102, Reservation_fails = 0
	L1D_cache_core[4]: Access = 144, Miss = 36, Miss_rate = 0.250, Pending_hits = 108, Reservation_fails = 0
	L1D_cache_core[5]: Access = 144, Miss = 36, Miss_rate = 0.250, Pending_hits = 108, Reservation_fails = 0
	L1D_cache_core[6]: Access = 136, Miss = 34, Miss_rate = 0.250, Pending_hits = 102, Reservation_fails = 0
	L1D_cache_core[7]: Access = 136, Miss = 34, Miss_rate = 0.250, Pending_hits = 102, Reservation_fails = 0
	L1D_cache_core[8]: Access = 136, Miss = 34, Miss_rate = 0.250, Pending_hits = 102, Reservation_fails = 0
	L1D_cache_core[9]: Access = 136, Miss = 34, Miss_rate = 0.250, Pending_hits = 102, Reservation_fails = 0
	L1D_cache_core[10]: Access = 136, Miss = 34, Miss_rate = 0.250, Pending_hits = 102, Reservation_fails = 0
	L1D_cache_core[11]: Access = 136, Miss = 34, Miss_rate = 0.250, Pending_hits = 102, Reservation_fails = 0
	L1D_cache_core[12]: Access = 128, Miss = 32, Miss_rate = 0.250, Pending_hits = 96, Reservation_fails = 0
	L1D_cache_core[13]: Access = 128, Miss = 32, Miss_rate = 0.250, Pending_hits = 96, Reservation_fails = 0
	L1D_cache_core[14]: Access = 136, Miss = 34, Miss_rate = 0.250, Pending_hits = 102, Reservation_fails = 0
	L1D_total_cache_accesses = 2116
	L1D_total_cache_misses = 548
	L1D_total_cache_miss_rate = 0.2590
	L1D_total_cache_pending_hits = 1536
	L1D_total_cache_reservation_fails = 0
	L1D_cache_data_port_util = 0.001
	L1D_cache_fill_port_util = 0.013
L1C_cache:
	L1C_total_cache_accesses = 4115
	L1C_total_cache_misses = 480
	L1C_total_cache_miss_rate = 0.1166
	L1C_total_cache_pending_hits = 0
	L1C_total_cache_reservation_fails = 3411
L1T_cache:
	L1T_total_cache_accesses = 0
	L1T_total_cache_misses = 0
	L1T_total_cache_pending_hits = 0
	L1T_total_cache_reservation_fails = 0

Total_core_cache_stats:
	Total_core_cache_stats_breakdown[GLOBAL_ACC_R][HIT] = 31
	Total_core_cache_stats_breakdown[GLOBAL_ACC_R][HIT_RESERVED] = 1536
	Total_core_cache_stats_breakdown[GLOBAL_ACC_R][MISS] = 523
	Total_core_cache_stats_breakdown[CONST_ACC_R][HIT] = 3635
	Total_core_cache_stats_breakdown[CONST_ACC_R][MISS] = 480
	Total_core_cache_stats_breakdown[CONST_ACC_R][RESERVATION_FAIL] = 3411
	Total_core_cache_stats_breakdown[GLOBAL_ACC_W][HIT] = 1
	Total_core_cache_stats_breakdown[GLOBAL_ACC_W][MISS] = 25
	Total_core_cache_stats_breakdown[INST_ACC_R][HIT] = 18559
	Total_core_cache_stats_breakdown[INST_ACC_R][MISS] = 962
	Total_core_cache_stats_breakdown[INST_ACC_R][RESERVATION_FAIL] = 6682
Shader 0 warp_id issue ditsribution:
warp_id:
0, 1, 2, 3, 4, 5, 6, 7, 8, 9, 10, 11, 12, 13, 14, 15, 16, 17, 18, 19, 20, 21, 22, 23, 24, 25, 26, 27, 28, 29, 30, 31, 32, 33, 34, 35, 36, 37, 38, 39, 40, 41, 42, 43, 44, 45, 46, 47, 
distro:
45, 45, 45, 45, 45, 45, 45, 45, 45, 45, 45, 45, 45, 45, 45, 45, 45, 45, 45, 45, 45, 45, 45, 45, 45, 45, 45, 45, 45, 45, 45, 45, 45, 45, 45, 45, 45, 45, 45, 45, 45, 45, 45, 45, 45, 45, 45, 45, 
gpgpu_n_tot_thrd_icount = 990816
gpgpu_n_tot_w_icount = 30963
gpgpu_n_stall_shd_mem = 3411
gpgpu_n_mem_read_local = 0
gpgpu_n_mem_write_local = 0
gpgpu_n_mem_read_global = 523
gpgpu_n_mem_write_global = 26
gpgpu_n_mem_texture = 0
gpgpu_n_mem_const = 15
gpgpu_n_load_insn  = 65578
gpgpu_n_store_insn = 26
gpgpu_n_shmem_insn = 0
gpgpu_n_tex_insn = 0
gpgpu_n_const_mem_insn = 0
gpgpu_n_param_mem_insn = 131091
gpgpu_n_shmem_bkconflict = 0
gpgpu_n_cache_bkconflict = 0
gpgpu_n_intrawarp_mshr_merge = 0
gpgpu_n_cmem_portconflict = 3411
gpgpu_stall_shd_mem[c_mem][bk_conf] = 3411
gpgpu_stall_shd_mem[c_mem][mshr_rc] = 0
gpgpu_stall_shd_mem[c_mem][icnt_rc] = 0
gpgpu_stall_shd_mem[c_mem][data_port_stall] = 0
gpgpu_stall_shd_mem[t_mem][mshr_rc] = 0
gpgpu_stall_shd_mem[t_mem][icnt_rc] = 0
gpgpu_stall_shd_mem[t_mem][data_port_stall] = 0
gpgpu_stall_shd_mem[s_mem][bk_conf] = 0
gpgpu_stall_shd_mem[gl_mem][bk_conf] = 0
gpgpu_stall_shd_mem[gl_mem][coal_stall] = 0
gpgpu_stall_shd_mem[gl_mem][data_port_stall] = 0
gpgpu_stall_shd_mem[g_mem_ld][mshr_rc] = 0
gpgpu_stall_shd_mem[g_mem_ld][icnt_rc] = 0
gpgpu_stall_shd_mem[g_mem_ld][wb_icnt_rc] = 0
gpgpu_stall_shd_mem[g_mem_ld][wb_rsrv_fail] = 0
gpgpu_stall_shd_mem[g_mem_st][mshr_rc] = 0
gpgpu_stall_shd_mem[g_mem_st][icnt_rc] = 0
gpgpu_stall_shd_mem[g_mem_st][wb_icnt_rc] = 0
gpgpu_stall_shd_mem[g_mem_st][wb_rsrv_fail] = 0
gpgpu_stall_shd_mem[l_mem_ld][mshr_rc] = 0
gpgpu_stall_shd_mem[l_mem_ld][icnt_rc] = 0
gpgpu_stall_shd_mem[l_mem_ld][wb_icnt_rc] = 0
gpgpu_stall_shd_mem[l_mem_ld][wb_rsrv_fail] = 0
gpgpu_stall_shd_mem[l_mem_st][mshr_rc] = 0
gpgpu_stall_shd_mem[l_mem_st][icnt_rc] = 0
gpgpu_stall_shd_mem[l_mem_ld][wb_icnt_rc] = 0
gpgpu_stall_shd_mem[l_mem_ld][wb_rsrv_fail] = 0
gpu_reg_bank_conflict_stalls = 0
Warp Occupancy Distribution:
Stall:7237	W0_Idle:18628	W0_Scoreboard:24374	W1:243	W2:0	W3:0	W4:0	W5:0	W6:0	W7:0	W8:0	W9:0	W10:0	W11:0	W12:0	W13:0	W14:0	W15:0	W16:0	W17:0	W18:0	W19:0	W20:0	W21:0	W22:0	W23:0	W24:0	W25:0	W26:0	W27:0	W28:0	W29:0	W30:0	W31:0	W32:30720
traffic_breakdown_coretomem[CONST_ACC_R] = 120 {8:15,}
traffic_breakdown_coretomem[GLOBAL_ACC_R] = 4184 {8:523,}
traffic_breakdown_coretomem[GLOBAL_ACC_W] = 1040 {40:26,}
traffic_breakdown_coretomem[INST_ACC_R] = 256 {8:32,}
traffic_breakdown_memtocore[CONST_ACC_R] = 1080 {72:15,}
traffic_breakdown_memtocore[GLOBAL_ACC_R] = 71128 {136:523,}
traffic_breakdown_memtocore[GLOBAL_ACC_W] = 208 {8:26,}
traffic_breakdown_memtocore[INST_ACC_R] = 4352 {136:32,}
maxmrqlatency = 29 
maxdqlatency = 0 
maxmflatency = 316 
averagemflatency = 264 
max_icnt2mem_latency = 36 
max_icnt2sh_latency = 5947 
mrq_lat_table:365 	38 	63 	61 	21 	0 	0 	0 	0 	0 	0 	0 	0 	0 	0 	0 	0 	0 	0 	0 	0 	0 	0 	0 	0 	0 	0 	0 	0 	0 	0 	0 	
dq_lat_table:0 	0 	0 	0 	0 	0 	0 	0 	0 	0 	0 	0 	0 	0 	0 	0 	0 	0 	0 	0 	0 	0 	0 	0 	0 	0 	0 	0 	0 	0 	0 	0 	
mf_lat_table:0 	0 	0 	0 	0 	0 	0 	29 	535 	0 	0 	0 	0 	0 	0 	0 	0 	0 	0 	0 	0 	0 	0 	0 	0 	0 	0 	0 	0 	0 	0 	0 	
icnt2mem_lat_table:0 	0 	0 	585 	8 	3 	0 	0 	0 	0 	0 	0 	0 	0 	0 	0 	0 	0 	0 	0 	0 	0 	0 	0 	
icnt2sh_lat_table:0 	0 	0 	339 	187 	12 	0 	0 	0 	0 	2 	9 	15 	0 	0 	0 	0 	0 	0 	0 	0 	0 	0 	0 	
mf_lat_pw_table:0 	0 	0 	0 	0 	0 	0 	5 	5 	0 	0 	0 	0 	0 	0 	0 	0 	0 	0 	0 	0 	0 	0 	0 	0 	0 	0 	0 	0 	0 	0 	0 	
maximum concurrent accesses to same row:
dram[0]:         1         0         0         0         0         0         0         0         0         0         0         0         0         0         0         0 
dram[1]:         0         0         0         0         0         0         0         0         0         0         0         0         0         0         0         0 
dram[2]:         0         0         0         0         0         0         0         0         0         0         0         0         0         0         0         0 
dram[3]:         0         0         0         0         0         0         0         0         0         0         0         0         0         0         0         0 
dram[4]:         0         0         0         0         0         0         0         0         0         0        22        22         0         0         0         0 
dram[5]:         0         0         0         0         0         0         0         0         0         0         0         0         0         0         0         0 
maximum service time to same row:
dram[0]:      1584         0      5929         0         0         0         0         0         0         0       954       915      1787      1779         0         0 
dram[1]:      1197         0         0         0         0         0         0         0         0         0       959       916      1797      1766         0      3990 
dram[2]:         0         0         0      3113         0      1632         0         0         0      4325       947       925      1787      1569         0         0 
dram[3]:         0         0         0      5122         0      4724         0         0         0         0       963       938      1800      1774         0         0 
dram[4]:         0      3916         0         0         0      5522         0         0         0         0      1272      2575      1763      1785      3182         0 
dram[5]:         0         0         0         0         0         0         0         0         0         0       919       944      1772      1797      5594         0 
average row accesses per activate:
dram[0]:  1.000000      -nan  2.000000      -nan      -nan      -nan      -nan      -nan      -nan      -nan 20.000000 22.000000 22.000000 22.000000      -nan      -nan 
dram[1]:  2.000000      -nan      -nan      -nan      -nan      -nan      -nan      -nan      -nan      -nan 20.000000 22.000000 24.000000 22.000000      -nan  3.000000 
dram[2]:      -nan      -nan      -nan  2.000000      -nan  1.000000      -nan      -nan      -nan  2.000000 20.000000 22.000000 22.000000 22.000000      -nan      -nan 
dram[3]:      -nan      -nan      -nan  2.000000      -nan  2.000000      -nan      -nan      -nan      -nan 20.000000 22.000000 22.000000 20.000000      -nan      -nan 
dram[4]:      -nan  2.000000      -nan      -nan      -nan  2.000000      -nan      -nan      -nan      -nan  8.333333 12.000000 22.000000 20.000000  2.000000      -nan 
dram[5]:      -nan      -nan      -nan      -nan      -nan      -nan      -nan      -nan      -nan      -nan 22.000000 22.000000 22.000000 20.000000  1.000000      -nan 
average row locality = 548/43 = 12.744186
number of total memory accesses made:
dram[0]:         0         0         0         0         0         0         0         0         0         0         0         0         0         0         0         0 
dram[1]:         0         0         0         0         0         0         0         0         0         0         0         0         0         0         0         0 
dram[2]:         0         0         0         0         0         0         0         0         0         0         0         0         0         0         0         0 
dram[3]:         0         0         0         0         0         0         0         0         0         0         0         0         0         0         0         0 
dram[4]:         0         0         0         0         0         0         0         0         0         0         0         0         0         0         0         0 
dram[5]:         0         0         0         0         0         0         0         0         0         0         0         0         0         0         0         0 
total accesses: 0
min_bank_accesses = 0!
min_chip_accesses = 0!
number of total read accesses:
dram[0]:         4         0         1         0         0         0         0         0         0         0        20        22        22        22         0         0 
dram[1]:         2         0         0         0         0         0         0         0         0         0        20        22        24        22         0         3 
dram[2]:         0         0         0         1         0         1         0         0         0         1        20        22        22        21         0         0 
dram[3]:         0         0         0         1         0         1         0         0         0         0        20        22        22        20         0         0 
dram[4]:         0         1         0         0         0         1         0         0         0         0        24        23        22        20         2         0 
dram[5]:         0         0         0         0         0         0         0         0         0         0        22        22        22        20         1         0 
total reads: 538
min_bank_accesses = 0!
chip skew: 93/86 = 1.08
number of total write accesses:
dram[0]:         0         0         1         0         0         0         0         0         0         0         0         0         0         0         0         0 
dram[1]:         0         0         0         0         0         0         0         0         0         0         0         0         0         0         0         0 
dram[2]:         0         0         0         1         0         0         0         0         0         1         0         0         0         1         0         0 
dram[3]:         0         0         0         1         0         1         0         0         0         0         0         0         0         0         0         0 
dram[4]:         0         1         0         0         0         1         0         0         0         0         1         1         0         0         0         0 
dram[5]:         0         0         0         0         0         0         0         0         0         0         0         0         0         0         0         0 
total reads: 10
min_bank_accesses = 0!
min_chip_accesses = 0!
average mf latency per bank:
dram[0]:       1055    none         125    none      none      none      none      none      none      none         267       270       275       268    none      none  
dram[1]:          0    none      none      none      none      none      none      none      none      none         273       270       269       270    none         262
dram[2]:     none      none      none         126    none         268    none      none      none         126       268       266       266       252    none      none  
dram[3]:     none      none      none         126    none         126    none      none      none      none         274       284       277       271    none      none  
dram[4]:     none         126    none      none      none         126    none      none      none      none         297       256       267       274       263    none  
dram[5]:     none      none      none      none      none      none      none      none      none      none         264       269       267       273       268    none  
maximum mf latency per bank:
dram[0]:        283         0       251         0         0         0         0         0         0         0       283       287       281       291         0         0
dram[1]:          0         0         0         0         0         0         0         0         0         0       287       292       305       316         0       268
dram[2]:          0         0         0       252         0       268         0         0         0       252       288       278       291       276         0         0
dram[3]:          0         0         0       252         0       252         0         0         0         0       277       301       284       308         0         0
dram[4]:          0       252         0         0         0       252         0         0         0         0       277       286       279       301       268         0
dram[5]:          0         0         0         0         0         0         0         0         0         0       277       284       296       302       268         0

Number of Memory Banks Accessed per Memory Operation per Warp (from 0):
0	0	0	0	0	0	0	0	0	0	0	0	0	0	0	0	0	0	0	0	0	0	0	0	0	0	0	0	0	0	0	0	0	0	0	0	0	0	0	0	0	0	0	0	0	0	0	0	0	0	0	0	0	0	0	0	0	0	0	0	0	0	0	0	0	0	0	0	0	0	0	0	0	0	0	0	0	0	0	0	0	0	0	0	0	0	0	0	0	0	0	0	0	0	0	0	
Average # of Memory Banks Accessed per Memory Operation per Warp=-nan

position of mrq chosen
0	0	0	0	0	0	0	0	0	0	0	0	0	0	0	0	

average position of mrq chosen = -nan
Memory Partition 0: 
Cache L2_bank_000:
MSHR contents
MSHR: tag=0x80234400, atomic=0 1 entries : 0x7fe86ba10270 :  mf: uid= 35855, sid01:w00, part=0, addr=0x80234440, load , size=32, unknown  status = IN_PARTITION_DRAM (5945), 

Cache L2_bank_001:
MSHR contents

In Dram Latency Queue (total = 0): 
DRAM[0]: 16 bks, busW=4 BL=8 CL=12, tRRD=2 tCCD=6, tRCD=12 tRAS=28 tRP=12 tRC=40
n_cmd=7851 n_nop=7656 n_act=9 n_pre=3 n_req=92 n_rd=182 n_write=1 bw_util=0.04662
n_activity=971 dram_eff=0.3769
bk0: 8a 7750i bk1: 0a 7847i bk2: 2a 7827i bk3: 0a 7848i bk4: 0a 7849i bk5: 0a 7850i bk6: 0a 7852i bk7: 0a 7852i bk8: 0a 7853i bk9: 0a 7853i bk10: 40a 7736i bk11: 44a 7671i bk12: 44a 7734i bk13: 44a 7674i bk14: 0a 7849i bk15: 0a 7850i 
dram_util_bins: 0 0 0 0 0 0 0 0 0 0
dram_eff_bins: 0 0 0 0 0 0 0 0 0 0
mrqq: max=4 avg=0.0412686
Memory Partition 1: 
Cache L2_bank_002:
MSHR contents

Cache L2_bank_003:
MSHR contents

In Dram Latency Queue (total = 0): 
DRAM[1]: 16 bks, busW=4 BL=8 CL=12, tRRD=2 tCCD=6, tRCD=12 tRAS=28 tRP=12 tRC=40
n_cmd=7851 n_nop=7659 n_act=6 n_pre=0 n_req=93 n_rd=186 n_write=0 bw_util=0.04738
n_activity=876 dram_eff=0.4247
bk0: 4a 7827i bk1: 0a 7847i bk2: 0a 7849i bk3: 0a 7849i bk4: 0a 7850i bk5: 0a 7850i bk6: 0a 7850i bk7: 0a 7852i bk8: 0a 7854i bk9: 0a 7854i bk10: 40a 7714i bk11: 44a 7672i bk12: 48a 7705i bk13: 44a 7652i bk14: 0a 7850i bk15: 6a 7825i 
dram_util_bins: 0 0 0 0 0 0 0 0 0 0
dram_eff_bins: 0 0 0 0 0 0 0 0 0 0
mrqq: max=4 avg=0.041396
Memory Partition 2: 
Cache L2_bank_004:
MSHR contents

Cache L2_bank_005:
MSHR contents

In Dram Latency Queue (total = 0): 
DRAM[2]: 16 bks, busW=4 BL=8 CL=12, tRRD=2 tCCD=6, tRCD=12 tRAS=28 tRP=12 tRC=40
n_cmd=7851 n_nop=7665 n_act=7 n_pre=0 n_req=91 n_rd=176 n_write=3 bw_util=0.0456
n_activity=884 dram_eff=0.405
bk0: 0a 7850i bk1: 0a 7851i bk2: 0a 7852i bk3: 2a 7829i bk4: 0a 7850i bk5: 2a 7834i bk6: 0a 7850i bk7: 0a 7852i bk8: 0a 7855i bk9: 2a 7832i bk10: 40a 7740i bk11: 44a 7700i bk12: 44a 7721i bk13: 42a 7702i bk14: 0a 7848i bk15: 0a 7848i 
dram_util_bins: 0 0 0 0 0 0 0 0 0 0
dram_eff_bins: 0 0 0 0 0 0 0 0 0 0
mrqq: max=1 avg=0.0175774
Memory Partition 3: 
Cache L2_bank_006:
MSHR contents

Cache L2_bank_007:
MSHR contents

In Dram Latency Queue (total = 0): 
DRAM[3]: 16 bks, busW=4 BL=8 CL=12, tRRD=2 tCCD=6, tRCD=12 tRAS=28 tRP=12 tRC=40
n_cmd=7851 n_nop=7671 n_act=6 n_pre=0 n_req=88 n_rd=172 n_write=2 bw_util=0.04433
n_activity=769 dram_eff=0.4525
bk0: 0a 7850i bk1: 0a 7851i bk2: 0a 7851i bk3: 2a 7830i bk4: 0a 7851i bk5: 2a 7828i bk6: 0a 7850i bk7: 0a 7852i bk8: 0a 7853i bk9: 0a 7854i bk10: 40a 7724i bk11: 44a 7628i bk12: 44a 7720i bk13: 40a 7667i bk14: 0a 7847i bk15: 0a 7847i 
dram_util_bins: 0 0 0 0 0 0 0 0 0 0
dram_eff_bins: 0 0 0 0 0 0 0 0 0 0
mrqq: max=3 avg=0.042415
Memory Partition 4: 
Cache L2_bank_008:
MSHR contents

Cache L2_bank_009:
MSHR contents

In Dram Latency Queue (total = 0): 
DRAM[4]: 16 bks, busW=4 BL=8 CL=12, tRRD=2 tCCD=6, tRCD=12 tRAS=28 tRP=12 tRC=40
n_cmd=7851 n_nop=7648 n_act=10 n_pre=3 n_req=97 n_rd=186 n_write=4 bw_util=0.0484
n_activity=934 dram_eff=0.4069
bk0: 0a 7846i bk1: 2a 7827i bk2: 0a 7850i bk3: 0a 7850i bk4: 0a 7851i bk5: 2a 7831i bk6: 0a 7853i bk7: 0a 7854i bk8: 0a 7856i bk9: 0a 7856i bk10: 48a 7668i bk11: 46a 7634i bk12: 44a 7711i bk13: 40a 7630i bk14: 4a 7826i bk15: 0a 7845i 
dram_util_bins: 0 0 0 0 0 0 0 0 0 0
dram_eff_bins: 0 0 0 0 0 0 0 0 0 0
mrqq: max=4 avg=0.0531143
Memory Partition 5: 
Cache L2_bank_010:
MSHR contents

Cache L2_bank_011:
MSHR contents

In Dram Latency Queue (total = 0): 
DRAM[5]: 16 bks, busW=4 BL=8 CL=12, tRRD=2 tCCD=6, tRCD=12 tRAS=28 tRP=12 tRC=40
n_cmd=7851 n_nop=7672 n_act=5 n_pre=0 n_req=87 n_rd=174 n_write=0 bw_util=0.04433
n_activity=744 dram_eff=0.4677
bk0: 0a 7847i bk1: 0a 7849i bk2: 0a 7849i bk3: 0a 7850i bk4: 0a 7850i bk5: 0a 7851i bk6: 0a 7851i bk7: 0a 7854i bk8: 0a 7854i bk9: 0a 7854i bk10: 44a 7723i bk11: 44a 7646i bk12: 44a 7720i bk13: 40a 7699i bk14: 2a 7832i bk15: 0a 7847i 
dram_util_bins: 0 0 0 0 0 0 0 0 0 0
dram_eff_bins: 0 0 0 0 0 0 0 0 0 0
mrqq: max=5 avg=0.043434

========= L2 cache stats =========
L2_cache_bank[0]: Access = 77, Miss = 47, Miss_rate = 0.610, Pending_hits = 6, Reservation_fails = 227
L2_cache_bank[1]: Access = 44, Miss = 44, Miss_rate = 1.000, Pending_hits = 0, Reservation_fails = 0
L2_cache_bank[2]: Access = 61, Miss = 46, Miss_rate = 0.754, Pending_hits = 3, Reservation_fails = 115
L2_cache_bank[3]: Access = 47, Miss = 47, Miss_rate = 1.000, Pending_hits = 0, Reservation_fails = 0
L2_cache_bank[4]: Access = 42, Miss = 42, Miss_rate = 1.000, Pending_hits = 0, Reservation_fails = 0
L2_cache_bank[5]: Access = 46, Miss = 46, Miss_rate = 1.000, Pending_hits = 0, Reservation_fails = 0
L2_cache_bank[6]: Access = 45, Miss = 42, Miss_rate = 0.933, Pending_hits = 0, Reservation_fails = 0
L2_cache_bank[7]: Access = 46, Miss = 44, Miss_rate = 0.957, Pending_hits = 0, Reservation_fails = 0
L2_cache_bank[8]: Access = 56, Miss = 48, Miss_rate = 0.857, Pending_hits = 0, Reservation_fails = 0
L2_cache_bank[9]: Access = 45, Miss = 45, Miss_rate = 1.000, Pending_hits = 0, Reservation_fails = 0
L2_cache_bank[10]: Access = 45, Miss = 45, Miss_rate = 1.000, Pending_hits = 0, Reservation_fails = 0
L2_cache_bank[11]: Access = 42, Miss = 42, Miss_rate = 1.000, Pending_hits = 0, Reservation_fails = 0
L2_total_cache_accesses = 596
L2_total_cache_misses = 538
L2_total_cache_miss_rate = 0.9027
L2_total_cache_pending_hits = 9
L2_total_cache_reservation_fails = 342
L2_total_cache_breakdown:
	L2_cache_stats_breakdown[GLOBAL_ACC_R][MISS] = 523
	L2_cache_stats_breakdown[CONST_ACC_R][HIT] = 11
	L2_cache_stats_breakdown[CONST_ACC_R][HIT_RESERVED] = 3
	L2_cache_stats_breakdown[CONST_ACC_R][MISS] = 1
	L2_cache_stats_breakdown[CONST_ACC_R][RESERVATION_FAIL] = 111
	L2_cache_stats_breakdown[GLOBAL_ACC_W][HIT] = 16
	L2_cache_stats_breakdown[GLOBAL_ACC_W][MISS] = 10
	L2_cache_stats_breakdown[INST_ACC_R][HIT] = 22
	L2_cache_stats_breakdown[INST_ACC_R][HIT_RESERVED] = 6
	L2_cache_stats_breakdown[INST_ACC_R][MISS] = 4
	L2_cache_stats_breakdown[INST_ACC_R][RESERVATION_FAIL] = 231
L2_cache_data_port_util = 0.002
L2_cache_fill_port_util = 0.030

icnt_total_pkts_mem_to_simt=2846
icnt_total_pkts_simt_to_mem=622
LD_mem_lat_dist  0 0 0 0 0 0 0 0 0 0 0 0 0 0 0 0 0 0 0 0 0 0 0 0 0 0 0
ST_mem_lat_dist  0 0 0 0 0 0 0 0 0 0 0 0 0 0 0 0 0 0 0 0 0 0 0 0 0 0 0
----------------------------Interconnect-DETAILS--------------------------------
Class 0:
Packet latency average = 10.1846
	minimum = 6
	maximum = 37
Network latency average = 9.63926
	minimum = 6
	maximum = 37
Slowest packet = 763
Flit latency average = 8.42013
	minimum = 6
	maximum = 34
Slowest flit = 14
Fragmentation average = 0
	minimum = 0
	maximum = 0
Injected packet rate average = 0.00742235
	minimum = 0.00588433 (at node 12)
	maximum = 0.0129455 (at node 15)
Accepted packet rate average = 0.00742235
	minimum = 0.00588433 (at node 12)
	maximum = 0.0129455 (at node 15)
Injected flit rate average = 0.0215946
	minimum = 0.00588433 (at node 12)
	maximum = 0.0576664 (at node 15)
Accepted flit rate average= 0.0215946
	minimum = 0.0070612 (at node 19)
	maximum = 0.0443847 (at node 1)
Injected packet length average = 2.9094
Accepted packet length average = 2.9094
Total in-flight flits = 0 (0 measured)
====== Overall Traffic Statistics ======
====== Traffic class 0 ======
Packet latency average = 10.1846 (1 samples)
	minimum = 6 (1 samples)
	maximum = 37 (1 samples)
Network latency average = 9.63926 (1 samples)
	minimum = 6 (1 samples)
	maximum = 37 (1 samples)
Flit latency average = 8.42013 (1 samples)
	minimum = 6 (1 samples)
	maximum = 34 (1 samples)
Fragmentation average = 0 (1 samples)
	minimum = 0 (1 samples)
	maximum = 0 (1 samples)
Injected packet rate average = 0.00742235 (1 samples)
	minimum = 0.00588433 (1 samples)
	maximum = 0.0129455 (1 samples)
Accepted packet rate average = 0.00742235 (1 samples)
	minimum = 0.00588433 (1 samples)
	maximum = 0.0129455 (1 samples)
Injected flit rate average = 0.0215946 (1 samples)
	minimum = 0.00588433 (1 samples)
	maximum = 0.0576664 (1 samples)
Accepted flit rate average = 0.0215946 (1 samples)
	minimum = 0.0070612 (1 samples)
	maximum = 0.0443847 (1 samples)
Injected packet size average = 2.9094 (1 samples)
Accepted packet size average = 2.9094 (1 samples)
Hops average = 1 (1 samples)
----------------------------END-of-Interconnect-DETAILS-------------------------


gpgpu_simulation_time = 0 days, 0 hrs, 0 min, 4 sec (4 sec)
gpgpu_simulation_rate = 229434 (inst/sec)
gpgpu_simulation_rate = 1487 (cycle/sec)
GPGPU-Sim: synchronize waiting for inactive GPU simulation
[...]
traffic_breakdown_coretomem[GLOBAL_ACC_R] = 4965840 {8:620730,}
traffic_breakdown_coretomem[GLOBAL_ACC_W] = 16559872 {40:413254,72:84,136:174,}
traffic_breakdown_coretomem[INST_ACC_R] = 480 {8:60,}
traffic_breakdown_memtocore[CONST_ACC_R] = 1080 {72:15,}
traffic_breakdown_memtocore[GLOBAL_ACC_R] = 84419280 {136:620730,}
traffic_breakdown_memtocore[GLOBAL_ACC_W] = 3308096 {8:413512,}
traffic_breakdown_memtocore[INST_ACC_R] = 8160 {136:60,}
maxmrqlatency = 288 
maxdqlatency = 0 
maxmflatency = 1212 
averagemflatency = 394 
max_icnt2mem_latency = 935 
max_icnt2sh_latency = 759247 
mrq_lat_table:16820 	1596 	515 	976 	1255 	245 	100 	43 	1 	0 	0 	0 	0 	0 	0 	0 	0 	0 	0 	0 	0 	0 	0 	0 	0 	0 	0 	0 	0 	0 	0 	0 	
dq_lat_table:0 	0 	0 	0 	0 	0 	0 	0 	0 	0 	0 	0 	0 	0 	0 	0 	0 	0 	0 	0 	0 	0 	0 	0 	0 	0 	0 	0 	0 	0 	0 	0 	
mf_lat_table:0 	0 	0 	0 	0 	0 	0 	130228 	723179 	180825 	25 	0 	0 	0 	0 	0 	0 	0 	0 	0 	0 	0 	0 	0 	0 	0 	0 	0 	0 	0 	0 	0 	
icnt2mem_lat_table:0 	0 	0 	80173 	29335 	77205 	325770 	249972 	267899 	3963 	0 	0 	0 	0 	0 	0 	0 	0 	0 	0 	0 	0 	0 	0 	
icnt2sh_lat_table:0 	0 	0 	35657 	295954 	271878 	17127 	129 	0 	0 	2 	9 	35 	912 	9245 	18736 	44204 	99696 	169545 	71128 	0 	0 	0 	0 	
mf_lat_pw_table:0 	0 	0 	0 	0 	0 	0 	105 	1420 	1 	0 	0 	0 	0 	0 	0 	0 	0 	0 	0 	0 	0 	0 	0 	0 	0 	0 	0 	0 	0 	0 	0 	
maximum concurrent accesses to same row:
dram[0]:        31        30        24        17        26        24        25        25        26        25        28        24        29        28        31        28 
dram[1]:        31        28        29        21        22        26        22        23        27        31        25        30        30        31        24        23 
dram[2]:        28        29        27        25        26        25        26        24        25        26        25        24        26        24        28        24 
dram[3]:        24        28        23        25        29        25        25        19        30        25        23        22        27        24        23        26 
dram[4]:        29        26        27        25        25        29        20        23        29        29        22        22        27        27        25        20 
dram[5]:        34        21        24        24        26        26        24        28        29        26        25        22        25        21        23        22 
maximum service time to same row:
dram[0]:    110998    114970    158931    171442    127978    128678    218468    154290    118937    113391    109144    112076     67305     68147     79174    107611 
dram[1]:    106279    115894    121485    122378    130689    128862    208417    101415     82185    113947    151266     98884    113752     89072     68283     78838 
dram[2]:     80071     86857    121647    126044    128497    125863    148906    152325    120662    167573     68522    112878     66520     66200    146017    134249 
dram[3]:    124705    142281    112763    119894    125539    128341    152174    105284     95284    109087    139578     96749    111619     90808     74703     73444 
dram[4]:    230747    114402    121413    113568    144257    144992    148878    151390    144860    107497    189666    125304    157115    126970    193662    120624 
dram[5]:    152838    142139    175655    169573    144976    143913    152105     97866    111551    112187     65590     60764    113047     98041    199066    140450 
average row accesses per activate:
dram[0]:  6.848485  6.081081  6.054054  4.787234  6.500000  5.340909  4.740741  5.244898  5.354167  4.759259  4.800000  4.711111  4.923077  4.465117  7.384615  7.111111 
dram[1]:  5.947369  7.062500  7.258065  5.113636  5.000000  4.607843  6.095238  4.849057  4.690909  5.953488  6.000000  5.435897  5.647059  4.571429  5.189189  5.333333 
dram[2]:  7.258065  6.617647  5.090909  4.687500  6.000000  5.756098  6.736842  6.564103  5.140000  5.333333  5.142857  4.240000  4.571429  4.288889  7.680000  6.857143 
dram[3]:  4.729167  5.090909  6.277778  6.787879  6.714286  5.900000  7.558824  5.354167  5.120000  3.878788  4.075472  4.608696  6.857143  5.647059  5.052631  4.682927 
dram[4]:  8.000000  5.333333  7.758621  4.109091  5.441861  6.555555  5.160000  6.425000  7.558824  7.111111  5.219512  5.729730  4.923077  4.363636  7.111111  6.400000 
dram[5]:  5.000000  4.392157  4.869565  5.255814  5.441861  6.051282  8.031250  8.533334  5.140000  4.196721  4.953488  4.076923  5.052631  5.485714  6.193548  4.800000 
average row locality = 21551/3932 = 5.480926
number of total memory accesses made:
dram[0]:         0         0         0         0         0         0         0         0         0         0         0         0         0         0         0         0 
dram[1]:         0         0         0         0         0         0         0         0         0         0         0         0         0         0         0         0 
dram[2]:         0         0         0         0         0         0         0         0         0         0         0         0         0         0         0         0 
dram[3]:         0         0         0         0         0         0         0         0         0         0         0         0         0         0         0         0 
dram[4]:         0         0         0         0         0         0         0         0         0         0         0         0         0         0         0         0 
dram[5]:         0         0         0         0         0         0         0         0         0         0         0         0         0         0         0         0 
total accesses: 0
min_bank_accesses = 0!
min_chip_accesses = 0!
number of total read accesses:
dram[0]:       195       192       192       192       202       202       224       224       224       224       204       202       192       192       192       192 
dram[1]:       194       192       192       192       202       202       224       224       224       224       204       202       192       192       192       192 
dram[2]:       192       192       192       192       202       204       224       224       224       224       204       202       192       192       192       192 
dram[3]:       192       192       192       192       202       204       224       224       224       224       204       202       192       192       192       192 
dram[4]:       192       192       192       192       202       204       224       224       224       224       203       202       192       192       192       192 
dram[5]:       192       192       192       192       202       204       224       224       224       224       202       202       192       192       192       192 
total reads: 19462
bank skew: 224/192 = 1.17
chip skew: 3245/3242 = 1.00
number of total write accesses:
dram[0]:        31        33        32        33        32        33        32        33        33        33        12        10         0         0         0         0 
dram[1]:        32        34        33        33        33        33        32        33        34        32        12        10         0         0         0         0 
dram[2]:        33        33        32        33        32        32        32        32        33        32        12        10         0         1         0         0 
dram[3]:        35        32        34        32        33        32        33        33        32        32        12        10         0         0         0         0 
dram[4]:        32        32        33        34        32        32        34        33        33        32        11        10         0         0         0         0 
dram[5]:        33        32        32        34        32        32        33        32        33        32        11        10         0         0         0         0 
total reads: 2089
min_bank_accesses = 0!
chip skew: 351/346 = 1.01
average mf latency per bank:
dram[0]:       8834      8921     10012     10018      9749      9739      9412      9142      8358      8723     19149     20206     33831     34162     47777     47478
dram[1]:       9026      9259     10047     10554      9984     10321      9499      9918      8931      8994     19114     20974     34124     35599     48916     50287
dram[2]:       9048      8911      9925      9910     10056     10001      9335      9335      8891      8974     19154     21240     34077     35740     46995     48889
dram[3]:       9114      9017      9783     10152      9628      9765      9357      9488      8727      8574     19463     20309     33727     35736     48154     49712
dram[4]:      11786      9027     12802     10034     13261      9898     12436      9067     11581      8345    120401     20685     45920     35468     63507     47851
dram[5]:       8895      9367      9941     10359      9586      9963      8833      9364      8336      8695     20294     20906     33836     35786     47224     48413
maximum mf latency per bank:
dram[0]:        859       971       909       874       852       964       956       924       963       955      1054       926       926       860      1039       889
dram[1]:        907      1036       896       887       918      1063       904       887       890       907       941       985       875      1003       960      1013
dram[2]:        846       980       813       866       886       856       864       912       835       950       892       933       840      1046      1043      1038
dram[3]:        850       869       906       938       891       910      1034       865       811      1022      1061       868       973       916       846       931
dram[4]:       1029       922      1032       972      1034       845       994       917      1092       899      1067       906      1212       936      1014       916
dram[5]:        881       893       922       878       802       840       844       844      1023       851       817      1000       951      1001       890       928

Number of Memory Banks Accessed per Memory Operation per Warp (from 0):
0	0	0	0	0	0	0	0	0	0	0	0	0	0	0	0	0	0	0	0	0	0	0	0	0	0	0	0	0	0	0	0	0	0	0	0	0	0	0	0	0	0	0	0	0	0	0	0	0	0	0	0	0	0	0	0	0	0	0	0	0	0	0	0	0	0	0	0	0	0	0	0	0	0	0	0	0	0	0	0	0	0	0	0	0	0	0	0	0	0	0	0	0	0	0	0	
Average # of Memory Banks Accessed per Memory Operation per Warp=-nan

position of mrq chosen
0	0	0	0	0	0	0	0	0	0	0	0	0	0	0	0	

average position of mrq chosen = -nan
Memory Partition 0: 
Cache L2_bank_000:
MSHR contents

Cache L2_bank_001:
MSHR contents

In Dram Latency Queue (total = 0): 
DRAM[0]: 16 bks, busW=4 BL=8 CL=12, tRRD=2 tCCD=6, tRCD=12 tRAS=28 tRP=12 tRC=40
n_cmd=1006041 n_nop=997892 n_act=664 n_pre=648 n_req=3592 n_rd=6490 n_write=347 bw_util=0.01359
n_activity=54505 dram_eff=0.2509
bk0: 390a 1003866i bk1: 384a 1003695i bk2: 384a 1003791i bk3: 384a 1003417i bk4: 404a 1003630i bk5: 404a 1003308i bk6: 448a 1002927i bk7: 448a 1003060i bk8: 448a 1003227i bk9: 448a 1003135i bk10: 408a 1003541i bk11: 404a 1003493i bk12: 384a 1003866i bk13: 384a 1003546i bk14: 384a 1004165i bk15: 384a 1004163i 
dram_util_bins: 0 0 0 0 0 0 0 0 0 0
dram_eff_bins: 0 0 0 0 0 0 0 0 0 0
mrqq: max=16 avg=0.0167558
Memory Partition 1: 
Cache L2_bank_002:
MSHR contents

Cache L2_bank_003:
MSHR contents

In Dram Latency Queue (total = 0): 
DRAM[1]: 16 bks, busW=4 BL=8 CL=12, tRRD=2 tCCD=6, tRCD=12 tRAS=28 tRP=12 tRC=40
n_cmd=1006041 n_nop=997898 n_act=660 n_pre=644 n_req=3595 n_rd=6488 n_write=351 bw_util=0.0136
n_activity=56937 dram_eff=0.2402
bk0: 388a 1003712i bk1: 384a 1003838i bk2: 384a 1003891i bk3: 384a 1003582i bk4: 404a 1003399i bk5: 404a 1003331i bk6: 448a 1003261i bk7: 448a 1003013i bk8: 448a 1003102i bk9: 448a 1003479i bk10: 408a 1003953i bk11: 404a 1003863i bk12: 384a 1004196i bk13: 384a 1003853i bk14: 384a 1003979i bk15: 384a 1003948i 
dram_util_bins: 0 0 0 0 0 0 0 0 0 0
dram_eff_bins: 0 0 0 0 0 0 0 0 0 0
mrqq: max=12 avg=0.0107242
Memory Partition 2: 
Cache L2_bank_004:
MSHR contents

Cache L2_bank_005:
MSHR contents

In Dram Latency Queue (total = 0): 
DRAM[2]: 16 bks, busW=4 BL=8 CL=12, tRRD=2 tCCD=6, tRCD=12 tRAS=28 tRP=12 tRC=40
n_cmd=1006041 n_nop=997934 n_act=644 n_pre=628 n_req=3591 n_rd=6488 n_write=347 bw_util=0.01359
n_activity=54477 dram_eff=0.2509
bk0: 384a 1003892i bk1: 384a 1003829i bk2: 384a 1003427i bk3: 384a 1003436i bk4: 404a 1003624i bk5: 408a 1003458i bk6: 448a 1003272i bk7: 448a 1003250i bk8: 448a 1003223i bk9: 448a 1003234i bk10: 408a 1003735i bk11: 404a 1003576i bk12: 384a 1003858i bk13: 384a 1003594i bk14: 384a 1004169i bk15: 384a 1004009i 
dram_util_bins: 0 0 0 0 0 0 0 0 0 0
dram_eff_bins: 0 0 0 0 0 0 0 0 0 0
mrqq: max=16 avg=0.0210339
Memory Partition 3: 
Cache L2_bank_006:
MSHR contents

Cache L2_bank_007:
MSHR contents

In Dram Latency Queue (total = 0): 
DRAM[3]: 16 bks, busW=4 BL=8 CL=12, tRRD=2 tCCD=6, tRCD=12 tRAS=28 tRP=12 tRC=40
n_cmd=1006041 n_nop=997871 n_act=674 n_pre=658 n_req=3594 n_rd=6488 n_write=350 bw_util=0.01359
n_activity=56543 dram_eff=0.2419
bk0: 384a 1003375i bk1: 384a 1003445i bk2: 384a 1003754i bk3: 384a 1003814i bk4: 404a 1003639i bk5: 408a 1003593i bk6: 448a 1003602i bk7: 448a 1003340i bk8: 448a 1003231i bk9: 448a 1002876i bk10: 408a 1003507i bk11: 404a 1003626i bk12: 384a 1004311i bk13: 384a 1004056i bk14: 384a 1004107i bk15: 384a 1004049i 
dram_util_bins: 0 0 0 0 0 0 0 0 0 0
dram_eff_bins: 0 0 0 0 0 0 0 0 0 0
mrqq: max=5 avg=0.0101755
Memory Partition 4: 
Cache L2_bank_008:
MSHR contents

Cache L2_bank_009:
MSHR contents

In Dram Latency Queue (total = 0): 
DRAM[4]: 16 bks, busW=4 BL=8 CL=12, tRRD=2 tCCD=6, tRCD=12 tRAS=28 tRP=12 tRC=40
n_cmd=1006041 n_nop=998001 n_act=611 n_pre=595 n_req=3591 n_rd=6486 n_write=348 bw_util=0.01359
n_activity=55383 dram_eff=0.2468
bk0: 384a 1004042i bk1: 384a 1003546i bk2: 384a 1003982i bk3: 384a 1003323i bk4: 404a 1003582i bk5: 408a 1003545i bk6: 448a 1003178i bk7: 448a 1003231i bk8: 448a 1003617i bk9: 448a 1003519i bk10: 406a 1003731i bk11: 404a 1003722i bk12: 384a 1003726i bk13: 384a 1003356i bk14: 384a 1004025i bk15: 384a 1003863i 
dram_util_bins: 0 0 0 0 0 0 0 0 0 0
dram_eff_bins: 0 0 0 0 0 0 0 0 0 0
mrqq: max=16 avg=0.0191722
Memory Partition 5: 
Cache L2_bank_010:
MSHR contents

Cache L2_bank_011:
MSHR contents

In Dram Latency Queue (total = 0): 
DRAM[5]: 16 bks, busW=4 BL=8 CL=12, tRRD=2 tCCD=6, tRCD=12 tRAS=28 tRP=12 tRC=40
n_cmd=1006041 n_nop=997869 n_act=679 n_pre=663 n_req=3588 n_rd=6484 n_write=346 bw_util=0.01358
n_activity=56133 dram_eff=0.2434
bk0: 384a 1003506i bk1: 384a 1003220i bk2: 384a 1003530i bk3: 384a 1003591i bk4: 404a 1003486i bk5: 408a 1003542i bk6: 448a 1003554i bk7: 448a 1003670i bk8: 448a 1003333i bk9: 448a 1003032i bk10: 404a 1003842i bk11: 404a 1003489i bk12: 384a 1003979i bk13: 384a 1003983i bk14: 384a 1004146i bk15: 384a 1003836i 
dram_util_bins: 0 0 0 0 0 0 0 0 0 0
dram_eff_bins: 0 0 0 0 0 0 0 0 0 0
mrqq: max=8 avg=0.0115651

========= L2 cache stats =========
L2_cache_bank[0]: Access = 82187, Miss = 1625, Miss_rate = 0.020, Pending_hits = 8, Reservation_fails = 230
L2_cache_bank[1]: Access = 82865, Miss = 1620, Miss_rate = 0.020, Pending_hits = 6, Reservation_fails = 0
L2_cache_bank[2]: Access = 82229, Miss = 1624, Miss_rate = 0.020, Pending_hits = 10, Reservation_fails = 115
L2_cache_bank[3]: Access = 83481, Miss = 1620, Miss_rate = 0.019, Pending_hits = 6, Reservation_fails = 0
L2_cache_bank[4]: Access = 81922, Miss = 1622, Miss_rate = 0.020, Pending_hits = 3, Reservation_fails = 0
L2_cache_bank[5]: Access = 83148, Miss = 1622, Miss_rate = 0.020, Pending_hits = 4, Reservation_fails = 207
L2_cache_bank[6]: Access = 82606, Miss = 1622, Miss_rate = 0.020, Pending_hits = 8, Reservation_fails = 0
L2_cache_bank[7]: Access = 83283, Miss = 1622, Miss_rate = 0.019, Pending_hits = 1, Reservation_fails = 0
L2_cache_bank[8]: Access = 122788, Miss = 1621, Miss_rate = 0.013, Pending_hits = 4, Reservation_fails = 72
L2_cache_bank[9]: Access = 83309, Miss = 1622, Miss_rate = 0.019, Pending_hits = 4, Reservation_fails = 42
L2_cache_bank[10]: Access = 82853, Miss = 1620, Miss_rate = 0.020, Pending_hits = 10, Reservation_fails = 0
L2_cache_bank[11]: Access = 83646, Miss = 1622, Miss_rate = 0.019, Pending_hits = 5, Reservation_fails = 0
L2_total_cache_accesses = 1034317
L2_total_cache_misses = 19462
L2_total_cache_miss_rate = 0.0188
L2_total_cache_pending_hits = 69
L2_total_cache_reservation_fails = 666
L2_total_cache_breakdown:
	L2_cache_stats_breakdown[GLOBAL_ACC_R][HIT] = 603302
	L2_cache_stats_breakdown[GLOBAL_ACC_R][HIT_RESERVED] = 20
	L2_cache_stats_breakdown[GLOBAL_ACC_R][MISS] = 17408
	L2_cache_stats_breakdown[GLOBAL_ACC_R][RESERVATION_FAIL] = 324
	L2_cache_stats_breakdown[CONST_ACC_R][HIT] = 11
	L2_cache_stats_breakdown[CONST_ACC_R][HIT_RESERVED] = 3
	L2_cache_stats_breakdown[CONST_ACC_R][MISS] = 1
	L2_cache_stats_breakdown[CONST_ACC_R][RESERVATION_FAIL] = 111
	L2_cache_stats_breakdown[GLOBAL_ACC_W][HIT] = 411423
	L2_cache_stats_breakdown[GLOBAL_ACC_W][HIT_RESERVED] = 40
	L2_cache_stats_breakdown[GLOBAL_ACC_W][MISS] = 2049
	L2_cache_stats_breakdown[INST_ACC_R][HIT] = 50
	L2_cache_stats_breakdown[INST_ACC_R][HIT_RESERVED] = 6
	L2_cache_stats_breakdown[INST_ACC_R][MISS] = 4
	L2_cache_stats_breakdown[INST_ACC_R][RESERVATION_FAIL] = 231
L2_cache_data_port_util = 0.309
L2_cache_fill_port_util = 0.009

icnt_total_pkts_mem_to_simt=3517507
icnt_total_pkts_simt_to_mem=1448435
LD_mem_lat_dist  0 0 0 0 0 0 0 0 0 0 0 0 0 0 0 0 0 0 0 0 0 0 0 0 0 0 0
ST_mem_lat_dist  0 0 0 0 0 0 0 0 0 0 0 0 0 0 0 0 0 0 0 0 0 0 0 0 0 0 0
----------------------------Interconnect-DETAILS--------------------------------
Class 0:
Packet latency average = 9.88283
	minimum = 6
	maximum = 32
Network latency average = 9.2202
	minimum = 6
	maximum = 21
Slowest packet = 2067844
Flit latency average = 7.79192
	minimum = 6
	maximum = 17
Slowest flit = 4963467
Fragmentation average = 0
	minimum = 0
	maximum = 0
Injected packet rate average = 0.0257853
	minimum = 0.0196906 (at node 12)
	maximum = 0.0309423 (at node 16)
Accepted packet rate average = 0.0257853
	minimum = 0.0196906 (at node 12)
	maximum = 0.0309423 (at node 16)
Injected flit rate average = 0.0773558
	minimum = 0.0196906 (at node 12)
	maximum = 0.154712 (at node 16)
Accepted flit rate average= 0.0773558
	minimum = 0.0260197 (at node 26)
	maximum = 0.126582 (at node 2)
Injected packet length average = 3
Accepted packet length average = 3
Total in-flight flits = 0 (0 measured)
====== Overall Traffic Statistics ======
====== Traffic class 0 ======
Packet latency average = 32.8855 (9 samples)
	minimum = 6 (9 samples)
	maximum = 341 (9 samples)
Network latency average = 21.448 (9 samples)
	minimum = 6 (9 samples)
	maximum = 247.222 (9 samples)
Flit latency average = 16.1656 (9 samples)
	minimum = 6 (9 samples)
	maximum = 244.889 (9 samples)
Fragmentation average = 0.0355719 (9 samples)
	minimum = 0 (9 samples)
	maximum = 144.222 (9 samples)
Injected packet rate average = 0.0516591 (9 samples)
	minimum = 0.0394477 (9 samples)
	maximum = 0.093539 (9 samples)
Accepted packet rate average = 0.0516591 (9 samples)
	minimum = 0.0394477 (9 samples)
	maximum = 0.093539 (9 samples)
Injected flit rate average = 0.128566 (9 samples)
	minimum = 0.0520303 (9 samples)
	maximum = 0.253031 (9 samples)
Accepted flit rate average = 0.128566 (9 samples)
	minimum = 0.0678241 (9 samples)
	maximum = 0.218715 (9 samples)
Injected packet size average = 2.48875 (9 samples)
Accepted packet size average = 2.48875 (9 samples)
Hops average = 1 (9 samples)
----------------------------END-of-Interconnect-DETAILS-------------------------


gpgpu_simulation_time = 0 days, 0 hrs, 7 min, 34 sec (454 sec)
gpgpu_simulation_rate = 37042 (inst/sec)
gpgpu_simulation_rate = 1678 (cycle/sec)
GPGPU-Sim: synchronize waiting for inactive GPU simulation
GPGPU-Sim API: Stream Manager State
GPGPU-Sim: detected inactive GPU simulation thread
Kernel Executed 9 times
Processing time: 454265.437500 (ms)
Result stored in result.txt
