

        *** GPGPU-Sim Simulator Version 3.2.2  [build 0] ***


GPGPU-Sim PTX: simulation mode 0 (can change with PTX_SIM_MODE_FUNC environment variable:
               1=functional simulation only, 0=detailed performance simulator)
GPGPU-Sim: Configuration options:

-network_mode                           1 # Interconnection network mode
-inter_config_file   config_fermi_islip.icnt # Interconnection network config file
-gpgpu_ptx_use_cuobjdump                    1 # Use cuobjdump to extract ptx and sass from binaries
-gpgpu_experimental_lib_support                    0 # Try to extract code from cuda libraries [Broken because of unknown cudaGetExportTable]
-gpgpu_ptx_convert_to_ptxplus                    0 # Convert SASS (native ISA) to ptxplus and run ptxplus
-gpgpu_ptx_force_max_capability                   20 # Force maximum compute capability
-gpgpu_ptx_inst_debug_to_file                    0 # Dump executed instructions' debug information to file
-gpgpu_ptx_inst_debug_file       inst_debug.txt # Executed instructions' debug output file
-gpgpu_ptx_inst_debug_thread_uid                    1 # Thread UID for executed instructions' debug output
-gpgpu_simd_model                       1 # 1 = post-dominator
-gpgpu_shader_core_pipeline              1536:32 # shader core pipeline config, i.e., {<nthread>:<warpsize>}
-gpgpu_tex_cache:l1  4:128:24,L:R:m:N:L,F:128:4,128:2 # per-shader L1 texture cache  (READ-ONLY) config  {<nsets>:<bsize>:<assoc>,<rep>:<wr>:<alloc>:<wr_alloc>,<mshr>:<N>:<merge>,<mq>:<rf>}
-gpgpu_const_cache:l1 64:64:2,L:R:f:N:L,A:2:32,4 # per-shader L1 constant memory cache  (READ-ONLY) config  {<nsets>:<bsize>:<assoc>,<rep>:<wr>:<alloc>:<wr_alloc>,<mshr>:<N>:<merge>,<mq>} 
-gpgpu_cache:il1     4:128:4,L:R:f:N:L,A:2:32,4 # shader L1 instruction cache config  {<nsets>:<bsize>:<assoc>,<rep>:<wr>:<alloc>:<wr_alloc>,<mshr>:<N>:<merge>,<mq>} 
-gpgpu_cache:dl1     64:128:1,L:L:m:N:H,A:32:8,8 # per-shader L1 data cache config  {<nsets>:<bsize>:<assoc>,<rep>:<wr>:<alloc>:<wr_alloc>,<mshr>:<N>:<merge>,<mq> | none}
-gpgpu_cache:dl1PrefL1                 none # per-shader L1 data cache config  {<nsets>:<bsize>:<assoc>,<rep>:<wr>:<alloc>:<wr_alloc>,<mshr>:<N>:<merge>,<mq> | none}
-gpgpu_cache:dl1PreShared                 none # per-shader L1 data cache config  {<nsets>:<bsize>:<assoc>,<rep>:<wr>:<alloc>:<wr_alloc>,<mshr>:<N>:<merge>,<mq> | none}
-gmem_skip_L1D                          0 # global memory access skip L1D cache (implements -Xptxas -dlcm=cg, default=no skip)
-gpgpu_perfect_mem                      0 # enable perfect memory mode (no cache miss)
-n_regfile_gating_group                    4 # group of lanes that should be read/written together)
-gpgpu_clock_gated_reg_file                    0 # enable clock gated reg file for power calculations
-gpgpu_clock_gated_lanes                    0 # enable clock gated lanes for power calculations
-gpgpu_shader_registers                32768 # Number of registers per shader core. Limits number of concurrent CTAs. (default 8192)
-gpgpu_shader_cta                       8 # Maximum number of concurrent CTAs in shader (default 8)
-gpgpu_num_cta_barriers                   16 # Maximum number of named barriers per CTA (default 16)
-gpgpu_n_clusters                      15 # number of processing clusters
-gpgpu_n_cores_per_cluster                    1 # number of simd cores per cluster
-gpgpu_n_cluster_ejection_buffer_size                    8 # number of packets in ejection buffer
-gpgpu_n_ldst_response_buffer_size                    2 # number of response packets in ld/st unit ejection buffer
-gpgpu_shmem_size                   16384 # Size of shared memory per shader core (default 16kB)
-gpgpu_shmem_size                   49152 # Size of shared memory per shader core (default 16kB)
-gpgpu_shmem_size_PrefL1                16384 # Size of shared memory per shader core (default 16kB)
-gpgpu_shmem_size_PrefShared                16384 # Size of shared memory per shader core (default 16kB)
-gpgpu_shmem_num_banks                   32 # Number of banks in the shared memory in each shader core (default 16)
-gpgpu_shmem_limited_broadcast                    0 # Limit shared memory to do one broadcast per cycle (default on)
-gpgpu_shmem_warp_parts                    1 # Number of portions a warp is divided into for shared memory bank conflict check 
-gpgpu_warpdistro_shader                   -1 # Specify which shader core to collect the warp size distribution from
-gpgpu_warp_issue_shader                    0 # Specify which shader core to collect the warp issue distribution from
-gpgpu_local_mem_map                    1 # Mapping from local memory space address to simulated GPU physical address space (default = enabled)
-gpgpu_num_reg_banks                   16 # Number of register banks (default = 8)
-gpgpu_reg_bank_use_warp_id                    0 # Use warp ID in mapping registers to banks (default = off)
-gpgpu_operand_collector_num_units_sp                    6 # number of collector units (default = 4)
-gpgpu_operand_collector_num_units_sfu                    8 # number of collector units (default = 4)
-gpgpu_operand_collector_num_units_mem                    2 # number of collector units (default = 2)
-gpgpu_operand_collector_num_units_gen                    0 # number of collector units (default = 0)
-gpgpu_operand_collector_num_in_ports_sp                    2 # number of collector unit in ports (default = 1)
-gpgpu_operand_collector_num_in_ports_sfu                    1 # number of collector unit in ports (default = 1)
-gpgpu_operand_collector_num_in_ports_mem                    1 # number of collector unit in ports (default = 1)
-gpgpu_operand_collector_num_in_ports_gen                    0 # number of collector unit in ports (default = 0)
-gpgpu_operand_collector_num_out_ports_sp                    2 # number of collector unit in ports (default = 1)
-gpgpu_operand_collector_num_out_ports_sfu                    1 # number of collector unit in ports (default = 1)
-gpgpu_operand_collector_num_out_ports_mem                    1 # number of collector unit in ports (default = 1)
-gpgpu_operand_collector_num_out_ports_gen                    0 # number of collector unit in ports (default = 0)
-gpgpu_coalesce_arch                   13 # Coalescing arch (default = 13, anything else is off for now)
-gpgpu_num_sched_per_core                    2 # Number of warp schedulers per core
-gpgpu_max_insn_issue_per_warp                    1 # Max number of instructions that can be issued per warp in one cycle by scheduler
-gpgpu_simt_core_sim_order                    1 # Select the simulation order of cores in a cluster (0=Fix, 1=Round-Robin)
-gpgpu_pipeline_widths        2,1,1,2,1,1,2 # Pipeline widths ID_OC_SP,ID_OC_SFU,ID_OC_MEM,OC_EX_SP,OC_EX_SFU,OC_EX_MEM,EX_WB
-gpgpu_num_sp_units                     2 # Number of SP units (default=1)
-gpgpu_num_sfu_units                    1 # Number of SF units (default=1)
-gpgpu_num_mem_units                    1 # Number if ldst units (default=1) WARNING: not hooked up to anything
-gpgpu_scheduler                      gto # Scheduler configuration: < lrr | gto | two_level_active > If two_level_active:<num_active_warps>:<inner_prioritization>:<outer_prioritization>For complete list of prioritization values see shader.h enum scheduler_prioritization_typeDefault: gto
-gpgpu_dram_scheduler                    1 # 0 = fifo, 1 = FR-FCFS (defaul)
-gpgpu_dram_partition_queues              8:8:8:8 # i2$:$2d:d2$:$2i
-l2_ideal                               0 # Use a ideal L2 cache that always hit
-gpgpu_cache:dl2     64:128:8,L:B:m:W:L,A:32:4,4:0,32 # unified banked L2 data cache config  {<nsets>:<bsize>:<assoc>,<rep>:<wr>:<alloc>:<wr_alloc>,<mshr>:<N>:<merge>,<mq>}
-gpgpu_cache:dl2_texture_only                    0 # L2 cache used for texture only
-gpgpu_n_mem                            6 # number of memory modules (e.g. memory controllers) in gpu
-gpgpu_n_sub_partition_per_mchannel                    2 # number of memory subpartition in each memory module
-gpgpu_n_mem_per_ctrlr                    2 # number of memory chips per memory controller
-gpgpu_memlatency_stat                   14 # track and display latency statistics 0x2 enables MC, 0x4 enables queue logs
-gpgpu_frfcfs_dram_sched_queue_size                   16 # 0 = unlimited (default); # entries per chip
-gpgpu_dram_return_queue_size                  116 # 0 = unlimited (default); # entries per chip
-gpgpu_dram_buswidth                    4 # default = 4 bytes (8 bytes per cycle at DDR)
-gpgpu_dram_burst_length                    8 # Burst length of each DRAM request (default = 4 data bus cycle)
-dram_data_command_freq_ratio                    4 # Frequency ratio between DRAM data bus and command bus (default = 2 times, i.e. DDR)
-gpgpu_dram_timing_opt nbk=16:CCD=2:RRD=6:RCD=12:RAS=28:RP=12:RC=40: CL=12:WL=4:CDLR=5:WR=12:nbkgrp=4:CCDL=3:RTPL=2 # DRAM timing parameters = {nbk:tCCD:tRRD:tRCD:tRAS:tRP:tRC:CL:WL:tCDLR:tWR:nbkgrp:tCCDL:tRTPL}
-rop_latency                          120 # ROP queue latency (default 85)
-dram_latency                         100 # DRAM latency (default 30)
-gpgpu_mem_addr_mapping dramid@8;00000000.00000000.00000000.00000000.0000RRRR.RRRRRRRR.BBBCCCCB.CCSSSSSS # mapping memory address to dram model {dramid@<start bit>;<memory address map>}
-gpgpu_mem_addr_test                    0 # run sweep test to check address mapping for aliased address
-gpgpu_mem_address_mask                    1 # 0 = old addressing mask, 1 = new addressing mask, 2 = new add. mask + flipped bank sel and chip sel bits
-gpuwattch_xml_file  gpuwattch_gtx480.xml # GPUWattch XML file
-power_simulation_enabled                    1 # Turn on power simulator (1=On, 0=Off)
-power_per_cycle_dump                    0 # Dump detailed power output each cycle
-power_trace_enabled                    0 # produce a file for the power trace (1=On, 0=Off)
-power_trace_zlevel                     6 # Compression level of the power trace output log (0=no comp, 9=highest)
-steady_power_levels_enabled                    0 # produce a file for the steady power levels (1=On, 0=Off)
-steady_state_definition                  8:4 # allowed deviation:number of samples
-gpgpu_max_cycle                        0 # terminates gpu simulation early (0 = no limit)
-gpgpu_max_insn                         0 # terminates gpu simulation early (0 = no limit)
-gpgpu_max_cta                          0 # terminates gpu simulation early (0 = no limit)
-gpgpu_runtime_stat                   500 # display runtime statistics such as dram utilization {<freq>:<flag>}
-liveness_message_freq                    1 # Minimum number of seconds between simulation liveness messages (0 = always print)
-gpgpu_flush_l1_cache                    0 # Flush L1 cache at the end of each kernel call
-gpgpu_flush_l2_cache                    0 # Flush L2 cache at the end of each kernel call
-gpgpu_deadlock_detect                    1 # Stop the simulation at deadlock (1=on (default), 0=off)
-gpgpu_ptx_instruction_classification                    0 # if enabled will classify ptx instruction types per kernel (Max 255 kernels now)
-gpgpu_ptx_sim_mode                     0 # Select between Performance (default) or Functional simulation (1)
-gpgpu_clock_domains 700.0:700.0:700.0:924.0 # Clock Domain Frequencies in MhZ {<Core Clock>:<ICNT Clock>:<L2 Clock>:<DRAM Clock>}
-gpgpu_max_concurrent_kernel                    8 # maximum kernels that can run concurrently on GPU
-gpgpu_cflog_interval                    0 # Interval between each snapshot in control flow logger
-visualizer_enabled                     0 # Turn on visualizer output (1=On, 0=Off)
-visualizer_outputfile                 NULL # Specifies the output log file for visualizer
-visualizer_zlevel                      6 # Compression level of the visualizer output log (0=no comp, 9=highest)
-trace_enabled                          0 # Turn on traces
-trace_components                    none # comma seperated list of traces to enable. Complete list found in trace_streams.tup. Default none
-trace_sampling_core                    0 # The core which is printed using CORE_DPRINTF. Default 0
-trace_sampling_memory_partition                   -1 # The memory partition which is printed using MEMPART_DPRINTF. Default -1 (i.e. all)
-enable_ptx_file_line_stats                    1 # Turn on PTX source line statistic profiling. (1 = On)
-ptx_line_stats_filename gpgpu_inst_stats.txt # Output file for PTX source line statistics.
-save_embedded_ptx                      0 # saves ptx files embedded in binary as <n>.ptx
-keep                                   0 # keep intermediate files created by GPGPU-Sim when interfacing with external programs
-gpgpu_ptx_save_converted_ptxplus                    0 # Saved converted ptxplus to a file
-ptx_opcode_latency_int         4,13,4,5,145 # Opcode latencies for integers <ADD,MAX,MUL,MAD,DIV>Default 1,1,19,25,145
-ptx_opcode_latency_fp          4,13,4,5,39 # Opcode latencies for single precision floating points <ADD,MAX,MUL,MAD,DIV>Default 1,1,1,1,30
-ptx_opcode_latency_dp         8,19,8,8,330 # Opcode latencies for double precision floating points <ADD,MAX,MUL,MAD,DIV>Default 8,8,8,8,335
-ptx_opcode_initiation_int            1,2,2,1,8 # Opcode initiation intervals for integers <ADD,MAX,MUL,MAD,DIV>Default 1,1,4,4,32
-ptx_opcode_initiation_fp            1,2,1,1,4 # Opcode initiation intervals for single precision floating points <ADD,MAX,MUL,MAD,DIV>Default 1,1,1,1,5
-ptx_opcode_initiation_dp         8,16,8,8,130 # Opcode initiation intervals for double precision floating points <ADD,MAX,MUL,MAD,DIV>Default 8,8,8,8,130
DRAM Timing Options:
nbk                                    16 # number of banks
CCD                                     2 # column to column delay
RRD                                     6 # minimal delay between activation of rows in different banks
RCD                                    12 # row to column delay
RAS                                    28 # time needed to activate row
RP                                     12 # time needed to precharge (deactivate) row
RC                                     40 # row cycle time
CDLR                                    5 # switching from write to read (changes tWTR)
WR                                     12 # last data-in to row precharge
CL                                     12 # CAS latency
WL                                      4 # Write latency
nbkgrp                                  4 # number of bank groups
CCDL                                    3 # column to column delay between accesses to different bank groups
RTPL                                    2 # read to precharge delay between accesses to different bank groups
Total number of memory sub partition = 12
addr_dec_mask[CHIP]  = 0000000000000000 	high:64 low:0
addr_dec_mask[BK]    = 000000000000e100 	high:16 low:8
addr_dec_mask[ROW]   = 000000000fff0000 	high:28 low:16
addr_dec_mask[COL]   = 0000000000001eff 	high:13 low:0
addr_dec_mask[BURST] = 000000000000003f 	high:6 low:0
sub_partition_id_mask = 0000000000000100
GPGPU-Sim uArch: clock freqs: 700000000.000000:700000000.000000:700000000.000000:924000000.000000
GPGPU-Sim uArch: clock periods: 0.00000000142857142857:0.00000000142857142857:0.00000000142857142857:0.00000000108225108225
*** Initializing Memory Statistics ***
GPGPU-Sim uArch: interconnect node map (shaderID+MemID to icntID)
GPGPU-Sim uArch: Memory nodes ID start from index: 15
GPGPU-Sim uArch:    0   1   2   3   4
GPGPU-Sim uArch:    5   6   7   8   9
GPGPU-Sim uArch:   10  11  12  13  14
GPGPU-Sim uArch:   15  16  17  18  19
GPGPU-Sim uArch:   20  21  22  23  24
GPGPU-Sim uArch:   25  26
GPGPU-Sim uArch: interconnect node reverse map (icntID to shaderID+MemID)
GPGPU-Sim uArch: Memory nodes start from ID: 15
GPGPU-Sim uArch:    0   1   2   3   4
GPGPU-Sim uArch:    5   6   7   8   9
GPGPU-Sim uArch:   10  11  12  13  14
GPGPU-Sim uArch:   15  16  17  18  19
GPGPU-Sim uArch:   20  21  22  23  24
GPGPU-Sim uArch:   25  26
36bb1eeaa5c1ff7ca0ddea1af00eaab8  /home/scratch/adwait/applications/benchmarks/CUDA/NN/gpgpu_ptx_sim__NN
GPGPU-Sim uArch: performance model initialization complete.
GPGPU-Sim PTX: __cudaRegisterFatBinary, fat_cubin_handle = 1, filename=NN.cu
self exe links to: /home/scratch/adwait/applications/benchmarks/CUDA/NN/gpgpu_ptx_sim__NN
Running md5sum using "md5sum /home/scratch/adwait/applications/benchmarks/CUDA/NN/gpgpu_ptx_sim__NN "
Running cuobjdump using "$CUDA_INSTALL_PATH/bin/cuobjdump -ptx -elf -sass /home/scratch/adwait/applications/benchmarks/CUDA/NN/gpgpu_ptx_sim__NN > _cuobjdump_complete_output_zZVIwQ"
Parsing file _cuobjdump_complete_output_zZVIwQ
######### cuobjdump parser ########
## Adding new section ELF
Adding arch: sm_20
Adding identifier: NN.cu
## Adding new section PTX
Adding ptx filename: _cuobjdump_1.ptx
Adding arch: sm_20
Adding identifier: NN.cu
Done parsing!!!
GPGPU-Sim PTX: __cudaRegisterFunction _Z18executeFourthLayerPfS_S_ : hostFun 0x0x402a51, fat_cubin_handle = 1
GPGPU-Sim PTX: allocating constant region for "kernelTemplate" from 0x100 to 0x164 (global memory space) 1
GPGPU-Sim PTX: instruction assembly for function '_Z17executeFirstLayerPfS_S_'...   done.
GPGPU-Sim PTX: finding reconvergence points for '_Z17executeFirstLayerPfS_S_'...
GPGPU-Sim PTX: Finding dominators for '_Z17executeFirstLayerPfS_S_'...
GPGPU-Sim PTX: Finding immediate dominators for '_Z17executeFirstLayerPfS_S_'...
GPGPU-Sim PTX: Finding postdominators for '_Z17executeFirstLayerPfS_S_'...
GPGPU-Sim PTX: Finding immediate postdominators for '_Z17executeFirstLayerPfS_S_'...
GPGPU-Sim PTX: pre-decoding instructions for '_Z17executeFirstLayerPfS_S_'...
GPGPU-Sim PTX: reconvergence points for _Z17executeFirstLayerPfS_S_...
GPGPU-Sim PTX:  1 (potential) branch divergence @  PC=0x100 (_1.ptx:100) @%p1 bra $Lt_0_4098;
GPGPU-Sim PTX:    immediate post dominator      @  PC=0x108 (_1.ptx:102) cvt.f64.f32 %fd1, %f1;
GPGPU-Sim PTX:  2 (potential) branch divergence @  PC=0x148 (_1.ptx:110) @!%p2 bra $Lt_0_4866;
GPGPU-Sim PTX:    immediate post dominator      @  PC=0x2a8 (_1.ptx:162) cvt.f64.f32 %fd5, %f29;
GPGPU-Sim PTX:  3 (potential) branch divergence @  PC=0x230 (_1.ptx:142) bra.uni $Lt_0_4610;
GPGPU-Sim PTX:    immediate post dominator      @  PC=0x2a8 (_1.ptx:162) cvt.f64.f32 %fd5, %f29;
GPGPU-Sim PTX: ... end of reconvergence points for _Z17executeFirstLayerPfS_S_
GPGPU-Sim PTX: ... done pre-decoding instructions for '_Z17executeFirstLayerPfS_S_'.
GPGPU-Sim PTX: allocating constant region for "kernelTemplate2" from 0x180 to 0x1e4 (global memory space) 2
GPGPU-Sim PTX: instruction assembly for function '_Z18executeSecondLayerPfS_S_'...   done.
GPGPU-Sim PTX: finding reconvergence points for '_Z18executeSecondLayerPfS_S_'...
GPGPU-Sim PTX: Finding dominators for '_Z18executeSecondLayerPfS_S_'...
GPGPU-Sim PTX: Finding immediate dominators for '_Z18executeSecondLayerPfS_S_'...
GPGPU-Sim PTX: Finding postdominators for '_Z18executeSecondLayerPfS_S_'...
GPGPU-Sim PTX: Finding immediate postdominators for '_Z18executeSecondLayerPfS_S_'...
GPGPU-Sim PTX: pre-decoding instructions for '_Z18executeSecondLayerPfS_S_'...
GPGPU-Sim PTX: reconvergence points for _Z18executeSecondLayerPfS_S_...
GPGPU-Sim PTX:  1 (potential) branch divergence @  PC=0x4a0 (_1.ptx:251) @%p1 bra $Lt_1_5634;
GPGPU-Sim PTX:    immediate post dominator      @  PC=0x4a8 (_1.ptx:253) cvt.f64.f32 %fd1, %f1;
GPGPU-Sim PTX:  2 (potential) branch divergence @  PC=0x4e8 (_1.ptx:261) @!%p2 bra $Lt_1_6402;
GPGPU-Sim PTX:    immediate post dominator      @  PC=0x648 (_1.ptx:313) cvt.f64.f32 %fd5, %f44;
GPGPU-Sim PTX:  3 (potential) branch divergence @  PC=0x5d0 (_1.ptx:293) bra.uni $Lt_1_6146;
GPGPU-Sim PTX:    immediate post dominator      @  PC=0x648 (_1.ptx:313) cvt.f64.f32 %fd5, %f44;
GPGPU-Sim PTX: ... end of reconvergence points for _Z18executeSecondLayerPfS_S_
GPGPU-Sim PTX: ... done pre-decoding instructions for '_Z18executeSecondLayerPfS_S_'.
GPGPU-Sim PTX: instruction assembly for function '_Z17executeThirdLayerPfS_S_'...   done.
GPGPU-Sim PTX: finding reconvergence points for '_Z17executeThirdLayerPfS_S_'...
GPGPU-Sim PTX: Finding dominators for '_Z17executeThirdLayerPfS_S_'...
GPGPU-Sim PTX: Finding immediate dominators for '_Z17executeThirdLayerPfS_S_'...
GPGPU-Sim PTX: Finding postdominators for '_Z17executeThirdLayerPfS_S_'...
GPGPU-Sim PTX: Finding immediate postdominators for '_Z17executeThirdLayerPfS_S_'...
GPGPU-Sim PTX: pre-decoding instructions for '_Z17executeThirdLayerPfS_S_'...
GPGPU-Sim PTX: reconvergence points for _Z17executeThirdLayerPfS_S_...
GPGPU-Sim PTX:  1 (potential) branch divergence @  PC=0x788 (_1.ptx:373) @%p1 bra $Lt_2_4098;
GPGPU-Sim PTX:    immediate post dominator      @  PC=0x790 (_1.ptx:375) cvt.f64.f32 %fd1, %f1;
GPGPU-Sim PTX:  2 (potential) branch divergence @  PC=0x7d0 (_1.ptx:383) @!%p2 bra $Lt_2_4866;
GPGPU-Sim PTX:    immediate post dominator      @  PC=0x930 (_1.ptx:435) cvt.f64.f32 %fd5, %f29;
GPGPU-Sim PTX:  3 (potential) branch divergence @  PC=0x8b8 (_1.ptx:415) bra.uni $Lt_2_4610;
GPGPU-Sim PTX:    immediate post dominator      @  PC=0x930 (_1.ptx:435) cvt.f64.f32 %fd5, %f29;
GPGPU-Sim PTX: ... end of reconvergence points for _Z17executeThirdLayerPfS_S_
GPGPU-Sim PTX: ... done pre-decoding instructions for '_Z17executeThirdLayerPfS_S_'.
GPGPU-Sim PTX: instruction assembly for function '_Z18executeFourthLayerPfS_S_'...   done.
GPGPU-Sim PTX: finding reconvergence points for '_Z18executeFourthLayerPfS_S_'...
GPGPU-Sim PTX: Finding dominators for '_Z18executeFourthLayerPfS_S_'...
GPGPU-Sim PTX: Finding immediate dominators for '_Z18executeFourthLayerPfS_S_'...
GPGPU-Sim PTX: Finding postdominators for '_Z18executeFourthLayerPfS_S_'...
GPGPU-Sim PTX: Finding immediate postdominators for '_Z18executeFourthLayerPfS_S_'...
GPGPU-Sim PTX: pre-decoding instructions for '_Z18executeFourthLayerPfS_S_'...
GPGPU-Sim PTX: reconvergence points for _Z18executeFourthLayerPfS_S_...
GPGPU-Sim PTX:  1 (potential) branch divergence @  PC=0xa50 (_1.ptx:491) @%p1 bra $Lt_3_4098;
GPGPU-Sim PTX:    immediate post dominator      @  PC=0xa58 (_1.ptx:493) cvt.f64.f32 %fd1, %f1;
GPGPU-Sim PTX:  2 (potential) branch divergence @  PC=0xa98 (_1.ptx:501) @!%p2 bra $Lt_3_4866;
GPGPU-Sim PTX:    immediate post dominator      @  PC=0xbf8 (_1.ptx:553) cvt.f64.f32 %fd5, %f29;
GPGPU-Sim PTX:  3 (potential) branch divergence @  PC=0xb80 (_1.ptx:533) bra.uni $Lt_3_4610;
GPGPU-Sim PTX:    immediate post dominator      @  PC=0xbf8 (_1.ptx:553) cvt.f64.f32 %fd5, %f29;
GPGPU-Sim PTX: ... end of reconvergence points for _Z18executeFourthLayerPfS_S_
GPGPU-Sim PTX: ... done pre-decoding instructions for '_Z18executeFourthLayerPfS_S_'.
GPGPU-Sim PTX: finished parsing EMBEDDED .ptx file _1.ptx
Adding _cuobjdump_1.ptx with cubin handle 1
GPGPU-Sim PTX: extracting embedded .ptx to temporary file "_ptx_SSkSI2"
Running: cat _ptx_SSkSI2 | sed 's/.version 1.5/.version 1.4/' | sed 's/, texmode_independent//' | sed 's/\(\.extern \.const\[1\] .b8 \w\+\)\[\]/\1\[1\]/' | sed 's/const\[.\]/const\[0\]/g' > _ptx2_FYCqVe
GPGPU-Sim PTX: generating ptxinfo using "$CUDA_INSTALL_PATH/bin/ptxas --gpu-name=sm_20 -v _ptx2_FYCqVe --output-file  /dev/null 2> _ptx_SSkSI2info"
GPGPU-Sim PTX: Kernel '_Z18executeFourthLayerPfS_S_' : regs=12, lmem=0, smem=0, cmem=288
GPGPU-Sim PTX: Kernel '_Z17executeThirdLayerPfS_S_' : regs=12, lmem=0, smem=0, cmem=288
GPGPU-Sim PTX: Kernel '_Z18executeSecondLayerPfS_S_' : regs=22, lmem=0, smem=0, cmem=288
GPGPU-Sim PTX: Kernel '_Z17executeFirstLayerPfS_S_' : regs=17, lmem=0, smem=0, cmem=288
GPGPU-Sim PTX: removing ptxinfo using "rm -f _ptx_SSkSI2 _ptx2_FYCqVe _ptx_SSkSI2info"
GPGPU-Sim PTX: loading globals with explicit initializers... 
GPGPU-Sim PTX: finished loading globals (0 bytes total).
GPGPU-Sim PTX: loading constants with explicit initializers...  done.
GPGPU-Sim PTX: __cudaRegisterFunction _Z17executeThirdLayerPfS_S_ : hostFun 0x0x40298f, fat_cubin_handle = 1
GPGPU-Sim PTX: __cudaRegisterFunction _Z18executeSecondLayerPfS_S_ : hostFun 0x0x4028cd, fat_cubin_handle = 1
GPGPU-Sim PTX: __cudaRegisterFunction _Z17executeFirstLayerPfS_S_ : hostFun 0x0x40280b, fat_cubin_handle = 1
GPGPU-Sim PTX: __cudaRegisterVar: hostVar = 0x60a180; deviceAddress = kernelTemplate; deviceName = kernelTemplate
GPGPU-Sim PTX: __cudaRegisterVar: Registering const memory space of 100 bytes
GPGPU-Sim PTX registering constant kernelTemplate (100 bytes) to name mapping
GPGPU-Sim PTX: __cudaRegisterVar: hostVar = 0x60a200; deviceAddress = kernelTemplate2; deviceName = kernelTemplate2
GPGPU-Sim PTX: __cudaRegisterVar: Registering const memory space of 100 bytes
GPGPU-Sim PTX registering constant kernelTemplate2 (100 bytes) to name mapping
magic number = 2051
number of items = 10000
number of rows = 28
number of rows = 28
NUM=28

GPGPU-Sim PTX: cudaLaunch for 0x0x40280b (mode=performance simulation) on stream 0
GPGPU-Sim PTX: pushing kernel '_Z17executeFirstLayerPfS_S_' to stream 0, gridDim= (6,28,1) blockDim = (13,13,1) 
kernel '_Z17executeFirstLayerPfS_S_' transfer to GPU hardware scheduler
GPGPU-Sim uArch: Shader 1 bind to kernel 1 '_Z17executeFirstLayerPfS_S_'
GPGPU-Sim uArch: CTA/core = 8, limited by: threads regs cta_limit
GPGPU-Sim uArch: core:  1, cta: 0 initialized @(1,0)
GPGPU-Sim uArch: Shader 2 bind to kernel 1 '_Z17executeFirstLayerPfS_S_'
GPGPU-Sim uArch: core:  2, cta: 0 initialized @(1,0)
GPGPU-Sim uArch: Shader 3 bind to kernel 1 '_Z17executeFirstLayerPfS_S_'
GPGPU-Sim uArch: core:  3, cta: 0 initialized @(1,0)
GPGPU-Sim uArch: Shader 4 bind to kernel 1 '_Z17executeFirstLayerPfS_S_'
GPGPU-Sim uArch: core:  4, cta: 0 initialized @(1,0)
GPGPU-Sim uArch: Shader 5 bind to kernel 1 '_Z17executeFirstLayerPfS_S_'
GPGPU-Sim uArch: core:  5, cta: 0 initialized @(1,0)
GPGPU-Sim uArch: Shader 6 bind to kernel 1 '_Z17executeFirstLayerPfS_S_'
GPGPU-Sim uArch: core:  6, cta: 0 initialized @(1,0)
GPGPU-Sim uArch: Shader 7 bind to kernel 1 '_Z17executeFirstLayerPfS_S_'
GPGPU-Sim uArch: core:  7, cta: 0 initialized @(1,0)
GPGPU-Sim uArch: Shader 8 bind to kernel 1 '_Z17executeFirstLayerPfS_S_'
GPGPU-Sim uArch: core:  8, cta: 0 initialized @(1,0)
GPGPU-Sim uArch: Shader 9 bind to kernel 1 '_Z17executeFirstLayerPfS_S_'
GPGPU-Sim uArch: core:  9, cta: 0 initialized @(1,0)
GPGPU-Sim uArch: Shader 10 bind to kernel 1 '_Z17executeFirstLayerPfS_S_'
GPGPU-Sim uArch: core: 10, cta: 0 initialized @(1,0)
GPGPU-Sim uArch: Shader 11 bind to kernel 1 '_Z17executeFirstLayerPfS_S_'
GPGPU-Sim uArch: core: 11, cta: 0 initialized @(1,0)
GPGPU-Sim uArch: Shader 12 bind to kernel 1 '_Z17executeFirstLayerPfS_S_'
GPGPU-Sim uArch: core: 12, cta: 0 initialized @(1,0)
GPGPU-Sim uArch: Shader 13 bind to kernel 1 '_Z17executeFirstLayerPfS_S_'
GPGPU-Sim uArch: core: 13, cta: 0 initialized @(1,0)
GPGPU-Sim uArch: Shader 14 bind to kernel 1 '_Z17executeFirstLayerPfS_S_'
GPGPU-Sim uArch: core: 14, cta: 0 initialized @(1,0)
GPGPU-Sim uArch: Shader 0 bind to kernel 1 '_Z17executeFirstLayerPfS_S_'
GPGPU-Sim uArch: core:  0, cta: 0 initialized @(1,0)
GPGPU-Sim uArch: core:  1, cta: 1 initialized @(2,0)
GPGPU-Sim uArch: core:  2, cta: 1 initialized @(2,0)
GPGPU-Sim uArch: core:  3, cta: 1 initialized @(2,0)
GPGPU-Sim uArch: core:  4, cta: 1 initialized @(2,0)
GPGPU-Sim uArch: core:  5, cta: 1 initialized @(2,0)
GPGPU-Sim uArch: core:  6, cta: 1 initialized @(2,0)
GPGPU-Sim uArch: core:  7, cta: 1 initialized @(2,0)
GPGPU-Sim uArch: core:  8, cta: 1 initialized @(2,0)
GPGPU-Sim uArch: core:  9, cta: 1 initialized @(2,0)
GPGPU-Sim uArch: core: 10, cta: 1 initialized @(2,0)
GPGPU-Sim uArch: core: 11, cta: 1 initialized @(2,0)
GPGPU-Sim uArch: core: 12, cta: 1 initialized @(2,0)
GPGPU-Sim uArch: core: 13, cta: 1 initialized @(2,0)
GPGPU-Sim uArch: core: 14, cta: 1 initialized @(2,0)
GPGPU-Sim uArch: core:  0, cta: 1 initialized @(2,0)
GPGPU-Sim uArch: core:  1, cta: 2 initialized @(3,0)
GPGPU-Sim uArch: core:  2, cta: 2 initialized @(3,0)
GPGPU-Sim uArch: core:  3, cta: 2 initialized @(3,0)
GPGPU-Sim uArch: core:  4, cta: 2 initialized @(3,0)
GPGPU-Sim uArch: core:  5, cta: 2 initialized @(3,0)
GPGPU-Sim uArch: core:  6, cta: 2 initialized @(3,0)
GPGPU-Sim uArch: core:  7, cta: 2 initialized @(3,0)
GPGPU-Sim uArch: core:  8, cta: 2 initialized @(3,0)
GPGPU-Sim uArch: core:  9, cta: 2 initialized @(3,0)
GPGPU-Sim uArch: core: 10, cta: 2 initialized @(3,0)
GPGPU-Sim uArch: core: 11, cta: 2 initialized @(3,0)
GPGPU-Sim uArch: core: 12, cta: 2 initialized @(3,0)
GPGPU-Sim uArch: core: 13, cta: 2 initialized @(3,0)
GPGPU-Sim uArch: core: 14, cta: 2 initialized @(3,0)
GPGPU-Sim uArch: core:  0, cta: 2 initialized @(3,0)
GPGPU-Sim uArch: core:  1, cta: 3 initialized @(4,0)
GPGPU-Sim uArch: core:  2, cta: 3 initialized @(4,0)
GPGPU-Sim uArch: core:  3, cta: 3 initialized @(4,0)
GPGPU-Sim uArch: core:  4, cta: 3 initialized @(4,0)
GPGPU-Sim uArch: core:  5, cta: 3 initialized @(4,0)
GPGPU-Sim uArch: core:  6, cta: 3 initialized @(4,0)
GPGPU-Sim uArch: core:  7, cta: 3 initialized @(4,0)
GPGPU-Sim uArch: core:  8, cta: 3 initialized @(4,0)
GPGPU-Sim uArch: core:  9, cta: 3 initialized @(4,0)
GPGPU-Sim uArch: core: 10, cta: 3 initialized @(4,0)
GPGPU-Sim uArch: core: 11, cta: 3 initialized @(4,0)
GPGPU-Sim uArch: core: 12, cta: 3 initialized @(4,0)
GPGPU-Sim uArch: core: 13, cta: 3 initialized @(4,0)
GPGPU-Sim uArch: core: 14, cta: 3 initialized @(4,0)
GPGPU-Sim uArch: core:  0, cta: 3 initialized @(4,0)
GPGPU-Sim uArch: core:  1, cta: 4 initialized @(5,0)
GPGPU-Sim uArch: core:  2, cta: 4 initialized @(5,0)
GPGPU-Sim uArch: core:  3, cta: 4 initialized @(5,0)
GPGPU-Sim uArch: core:  4, cta: 4 initialized @(5,0)
GPGPU-Sim uArch: core:  5, cta: 4 initialized @(5,0)
GPGPU-Sim uArch: core:  6, cta: 4 initialized @(5,0)
GPGPU-Sim uArch: core:  7, cta: 4 initialized @(5,0)
GPGPU-Sim uArch: core:  8, cta: 4 initialized @(5,0)
GPGPU-Sim uArch: core:  9, cta: 4 initialized @(5,0)
GPGPU-Sim uArch: core: 10, cta: 4 initialized @(5,0)
GPGPU-Sim uArch: core: 11, cta: 4 initialized @(5,0)
GPGPU-Sim uArch: core: 12, cta: 4 initialized @(5,0)
GPGPU-Sim uArch: core: 13, cta: 4 initialized @(5,0)
GPGPU-Sim uArch: core: 14, cta: 4 initialized @(5,0)
GPGPU-Sim uArch: core:  0, cta: 4 initialized @(5,0)
GPGPU-Sim uArch: core:  1, cta: 5 initialized @(6,0)
GPGPU-Sim uArch: core:  2, cta: 5 initialized @(6,0)
GPGPU-Sim uArch: core:  3, cta: 5 initialized @(6,0)
GPGPU-Sim uArch: core:  4, cta: 5 initialized @(6,0)
GPGPU-Sim uArch: core:  5, cta: 5 initialized @(6,0)
GPGPU-Sim uArch: core:  6, cta: 5 initialized @(6,0)
GPGPU-Sim uArch: core:  7, cta: 5 initialized @(6,0)
GPGPU-Sim uArch: core:  8, cta: 5 initialized @(6,0)
GPGPU-Sim uArch: core:  9, cta: 5 initialized @(6,0)
GPGPU-Sim uArch: core: 10, cta: 5 initialized @(6,0)
GPGPU-Sim uArch: core: 11, cta: 5 initialized @(6,0)
GPGPU-Sim uArch: core: 12, cta: 5 initialized @(6,0)
GPGPU-Sim uArch: core: 13, cta: 5 initialized @(6,0)
GPGPU-Sim uArch: core: 14, cta: 5 initialized @(6,0)
GPGPU-Sim uArch: core:  0, cta: 5 initialized @(6,0)
GPGPU-Sim uArch: core:  1, cta: 6 initialized @(7,0)
GPGPU-Sim uArch: core:  2, cta: 6 initialized @(7,0)
GPGPU-Sim uArch: core:  3, cta: 6 initialized @(7,0)
GPGPU-Sim uArch: core:  4, cta: 6 initialized @(7,0)
GPGPU-Sim uArch: core:  5, cta: 6 initialized @(7,0)
GPGPU-Sim uArch: core:  6, cta: 6 initialized @(7,0)
GPGPU-Sim uArch: core:  7, cta: 6 initialized @(7,0)
GPGPU-Sim uArch: core:  8, cta: 6 initialized @(7,0)
GPGPU-Sim uArch: core:  9, cta: 6 initialized @(7,0)
GPGPU-Sim uArch: core: 10, cta: 6 initialized @(7,0)
GPGPU-Sim uArch: core: 11, cta: 6 initialized @(7,0)
GPGPU-Sim uArch: core: 12, cta: 6 initialized @(7,0)
GPGPU-Sim uArch: core: 13, cta: 6 initialized @(7,0)
GPGPU-Sim uArch: core: 14, cta: 6 initialized @(7,0)
GPGPU-Sim uArch: core:  0, cta: 6 initialized @(7,0)
GPGPU-Sim uArch: core:  1, cta: 7 initialized @(8,0)
GPGPU-Sim uArch: core:  2, cta: 7 initialized @(8,0)
GPGPU-Sim uArch: core:  3, cta: 7 initialized @(8,0)
GPGPU-Sim uArch: core:  4, cta: 7 initialized @(8,0)
GPGPU-Sim uArch: core:  5, cta: 7 initialized @(8,0)
GPGPU-Sim uArch: core:  6, cta: 7 initialized @(8,0)
GPGPU-Sim uArch: core:  7, cta: 7 initialized @(8,0)
GPGPU-Sim uArch: core:  8, cta: 7 initialized @(8,0)
GPGPU-Sim uArch: core:  9, cta: 7 initialized @(8,0)
GPGPU-Sim uArch: core: 10, cta: 7 initialized @(8,0)
GPGPU-Sim uArch: core: 11, cta: 7 initialized @(8,0)
GPGPU-Sim uArch: core: 12, cta: 7 initialized @(8,0)
GPGPU-Sim uArch: core: 13, cta: 7 initialized @(8,0)
GPGPU-Sim uArch: core: 14, cta: 7 initialized @(8,0)
GPGPU-Sim uArch: core:  0, cta: 7 initialized @(8,0)
GPGPU-Sim uArch: cycles simulated: 500  inst.: 70695 (ipc=141.4) sim_rate=70695 (inst/sec) elapsed = 0:0:00:01 / Tue Apr 16 16:54:32 2019
GPGPU-Sim PTX: 100000 instructions simulated : ctaid=(2,0,0) tid=(0,12,0)
GPGPU-Sim PTX: 200000 instructions simulated : ctaid=(5,7,0) tid=(8,5,0)
GPGPU-Sim uArch: cycles simulated: 1000  inst.: 244529 (ipc=244.5) sim_rate=122264 (inst/sec) elapsed = 0:0:00:02 / Tue Apr 16 16:54:33 2019
GPGPU-Sim PTX: 300000 instructions simulated : ctaid=(3,13,0) tid=(9,12,0)
GPGPU-Sim PTX: 400000 instructions simulated : ctaid=(0,0,0) tid=(9,5,0)
GPGPU-Sim PTX: 500000 instructions simulated : ctaid=(3,1,0) tid=(8,0,0)
GPGPU-Sim uArch: cycles simulated: 2000  inst.: 505601 (ipc=252.8) sim_rate=168533 (inst/sec) elapsed = 0:0:00:03 / Tue Apr 16 16:54:34 2019
GPGPU-Sim uArch: cycles simulated: 3000  inst.: 576646 (ipc=192.2) sim_rate=144161 (inst/sec) elapsed = 0:0:00:04 / Tue Apr 16 16:54:35 2019
GPGPU-Sim PTX: 600000 instructions simulated : ctaid=(3,7,0) tid=(1,10,0)
GPGPU-Sim PTX: 700000 instructions simulated : ctaid=(5,4,0) tid=(3,2,0)
GPGPU-Sim uArch: cycles simulated: 4500  inst.: 710433 (ipc=157.9) sim_rate=142086 (inst/sec) elapsed = 0:0:00:05 / Tue Apr 16 16:54:36 2019
GPGPU-Sim PTX: 800000 instructions simulated : ctaid=(5,5,0) tid=(3,1,0)
GPGPU-Sim uArch: cycles simulated: 5500  inst.: 802008 (ipc=145.8) sim_rate=133668 (inst/sec) elapsed = 0:0:00:06 / Tue Apr 16 16:54:37 2019
GPGPU-Sim PTX: 900000 instructions simulated : ctaid=(1,8,0) tid=(9,1,0)
GPGPU-Sim uArch: cycles simulated: 6500  inst.: 896531 (ipc=137.9) sim_rate=128075 (inst/sec) elapsed = 0:0:00:07 / Tue Apr 16 16:54:38 2019
GPGPU-Sim PTX: 1000000 instructions simulated : ctaid=(3,6,0) tid=(9,6,0)
GPGPU-Sim uArch: cycles simulated: 8000  inst.: 1028926 (ipc=128.6) sim_rate=128615 (inst/sec) elapsed = 0:0:00:08 / Tue Apr 16 16:54:39 2019
GPGPU-Sim PTX: 1100000 instructions simulated : ctaid=(2,2,0) tid=(11,5,0)
GPGPU-Sim uArch: cycles simulated: 9000  inst.: 1121264 (ipc=124.6) sim_rate=124584 (inst/sec) elapsed = 0:0:00:09 / Tue Apr 16 16:54:40 2019
GPGPU-Sim PTX: 1200000 instructions simulated : ctaid=(3,4,0) tid=(3,1,0)
GPGPU-Sim uArch: cycles simulated: 10500  inst.: 1262635 (ipc=120.3) sim_rate=126263 (inst/sec) elapsed = 0:0:00:10 / Tue Apr 16 16:54:41 2019
GPGPU-Sim PTX: 1300000 instructions simulated : ctaid=(0,2,0) tid=(10,0,0)
GPGPU-Sim PTX: 1400000 instructions simulated : ctaid=(3,1,0) tid=(4,0,0)
GPGPU-Sim uArch: cycles simulated: 12000  inst.: 1401192 (ipc=116.8) sim_rate=127381 (inst/sec) elapsed = 0:0:00:11 / Tue Apr 16 16:54:42 2019
GPGPU-Sim PTX: 1500000 instructions simulated : ctaid=(0,3,0) tid=(5,0,0)
GPGPU-Sim uArch: cycles simulated: 13500  inst.: 1534058 (ipc=113.6) sim_rate=127838 (inst/sec) elapsed = 0:0:00:12 / Tue Apr 16 16:54:43 2019
GPGPU-Sim PTX: 1600000 instructions simulated : ctaid=(4,0,0) tid=(11,2,0)
GPGPU-Sim uArch: cycles simulated: 15000  inst.: 1675584 (ipc=111.7) sim_rate=128891 (inst/sec) elapsed = 0:0:00:13 / Tue Apr 16 16:54:44 2019
GPGPU-Sim PTX: 1700000 instructions simulated : ctaid=(2,4,0) tid=(6,0,0)
GPGPU-Sim PTX: 1800000 instructions simulated : ctaid=(3,9,0) tid=(8,0,0)
GPGPU-Sim uArch: cycles simulated: 16500  inst.: 1808443 (ipc=109.6) sim_rate=129174 (inst/sec) elapsed = 0:0:00:14 / Tue Apr 16 16:54:45 2019
GPGPU-Sim PTX: 1900000 instructions simulated : ctaid=(1,7,0) tid=(12,1,0)
GPGPU-Sim uArch: cycles simulated: 18000  inst.: 1952498 (ipc=108.5) sim_rate=130166 (inst/sec) elapsed = 0:0:00:15 / Tue Apr 16 16:54:46 2019
GPGPU-Sim PTX: 2000000 instructions simulated : ctaid=(5,0,0) tid=(5,3,0)
GPGPU-Sim PTX: 2100000 instructions simulated : ctaid=(5,4,0) tid=(0,7,0)
GPGPU-Sim uArch: cycles simulated: 19500  inst.: 2101760 (ipc=107.8) sim_rate=131360 (inst/sec) elapsed = 0:0:00:16 / Tue Apr 16 16:54:47 2019
GPGPU-Sim uArch: cycles simulated: 20500  inst.: 2191799 (ipc=106.9) sim_rate=128929 (inst/sec) elapsed = 0:0:00:17 / Tue Apr 16 16:54:48 2019
GPGPU-Sim PTX: 2200000 instructions simulated : ctaid=(3,9,0) tid=(0,11,0)
GPGPU-Sim PTX: 2300000 instructions simulated : ctaid=(1,6,0) tid=(4,11,0)
GPGPU-Sim uArch: cycles simulated: 22000  inst.: 2325305 (ipc=105.7) sim_rate=129183 (inst/sec) elapsed = 0:0:00:18 / Tue Apr 16 16:54:49 2019
GPGPU-Sim PTX: 2400000 instructions simulated : ctaid=(0,5,0) tid=(9,11,0)
GPGPU-Sim uArch: cycles simulated: 23500  inst.: 2462498 (ipc=104.8) sim_rate=129605 (inst/sec) elapsed = 0:0:00:19 / Tue Apr 16 16:54:50 2019
GPGPU-Sim PTX: 2500000 instructions simulated : ctaid=(4,2,0) tid=(6,11,0)
GPGPU-Sim PTX: 2600000 instructions simulated : ctaid=(0,4,0) tid=(2,0,0)
GPGPU-Sim uArch: cycles simulated: 25000  inst.: 2615816 (ipc=104.6) sim_rate=130790 (inst/sec) elapsed = 0:0:00:20 / Tue Apr 16 16:54:51 2019
GPGPU-Sim PTX: 2700000 instructions simulated : ctaid=(1,12,0) tid=(2,7,0)
GPGPU-Sim uArch: cycles simulated: 26000  inst.: 2708760 (ipc=104.2) sim_rate=128988 (inst/sec) elapsed = 0:0:00:21 / Tue Apr 16 16:54:52 2019
GPGPU-Sim PTX: 2800000 instructions simulated : ctaid=(2,5,0) tid=(4,5,0)
GPGPU-Sim uArch: Shader 14 finished CTA #0 (26910,0), 7 CTAs running
GPGPU-Sim uArch: core: 14, cta: 0 initialized @(26911,0)
GPGPU-Sim uArch: cycles simulated: 27500  inst.: 2856957 (ipc=103.9) sim_rate=129861 (inst/sec) elapsed = 0:0:00:22 / Tue Apr 16 16:54:53 2019
GPGPU-Sim uArch: Shader 1 finished CTA #0 (27817,0), 7 CTAs running
GPGPU-Sim uArch: core:  1, cta: 0 initialized @(27818,0)
GPGPU-Sim PTX: 2900000 instructions simulated : ctaid=(2,9,0) tid=(3,5,0)
GPGPU-Sim uArch: Shader 13 finished CTA #0 (27972,0), 7 CTAs running
GPGPU-Sim uArch: core: 13, cta: 0 initialized @(27973,0)
GPGPU-Sim uArch: Shader 0 finished CTA #0 (27978,0), 7 CTAs running
GPGPU-Sim uArch: core:  0, cta: 0 initialized @(27979,0)
GPGPU-Sim uArch: cycles simulated: 28500  inst.: 2947043 (ipc=103.4) sim_rate=128132 (inst/sec) elapsed = 0:0:00:23 / Tue Apr 16 16:54:54 2019
GPGPU-Sim PTX: 3000000 instructions simulated : ctaid=(3,12,0) tid=(12,5,0)
GPGPU-Sim uArch: Shader 2 finished CTA #0 (29417,0), 7 CTAs running
GPGPU-Sim uArch: core:  2, cta: 0 initialized @(29418,0)
GPGPU-Sim uArch: cycles simulated: 30000  inst.: 3089493 (ipc=103.0) sim_rate=128728 (inst/sec) elapsed = 0:0:00:24 / Tue Apr 16 16:54:55 2019
GPGPU-Sim PTX: 3100000 instructions simulated : ctaid=(4,1,0) tid=(2,8,0)
GPGPU-Sim uArch: Shader 3 finished CTA #0 (30536,0), 7 CTAs running
GPGPU-Sim uArch: core:  3, cta: 0 initialized @(30537,0)
GPGPU-Sim uArch: Shader 5 finished CTA #0 (30733,0), 7 CTAs running
GPGPU-Sim uArch: core:  5, cta: 0 initialized @(30734,0)
GPGPU-Sim uArch: Shader 4 finished CTA #0 (30802,0), 7 CTAs running
GPGPU-Sim uArch: core:  4, cta: 0 initialized @(30803,0)
GPGPU-Sim uArch: cycles simulated: 31000  inst.: 3177710 (ipc=102.5) sim_rate=127108 (inst/sec) elapsed = 0:0:00:25 / Tue Apr 16 16:54:56 2019
GPGPU-Sim PTX: 3200000 instructions simulated : ctaid=(1,10,0) tid=(5,2,0)
GPGPU-Sim PTX: 3300000 instructions simulated : ctaid=(1,10,0) tid=(6,0,0)
GPGPU-Sim uArch: cycles simulated: 32500  inst.: 3309133 (ipc=101.8) sim_rate=127274 (inst/sec) elapsed = 0:0:00:26 / Tue Apr 16 16:54:57 2019
GPGPU-Sim PTX: 3400000 instructions simulated : ctaid=(5,9,0) tid=(0,5,0)
GPGPU-Sim uArch: cycles simulated: 33500  inst.: 3402377 (ipc=101.6) sim_rate=126013 (inst/sec) elapsed = 0:0:00:27 / Tue Apr 16 16:54:58 2019
GPGPU-Sim PTX: 3500000 instructions simulated : ctaid=(4,5,0) tid=(5,3,0)
GPGPU-Sim uArch: Shader 6 finished CTA #0 (34886,0), 7 CTAs running
GPGPU-Sim uArch: core:  6, cta: 0 initialized @(34887,0)
GPGPU-Sim uArch: cycles simulated: 35000  inst.: 3521792 (ipc=100.6) sim_rate=125778 (inst/sec) elapsed = 0:0:00:28 / Tue Apr 16 16:54:59 2019
GPGPU-Sim PTX: 3600000 instructions simulated : ctaid=(0,8,0) tid=(4,0,0)
GPGPU-Sim uArch: cycles simulated: 36500  inst.: 3658977 (ipc=100.2) sim_rate=126171 (inst/sec) elapsed = 0:0:00:29 / Tue Apr 16 16:55:00 2019
GPGPU-Sim uArch: Shader 11 finished CTA #0 (36865,0), 7 CTAs running
GPGPU-Sim uArch: core: 11, cta: 0 initialized @(36866,0)
GPGPU-Sim PTX: 3700000 instructions simulated : ctaid=(2,3,0) tid=(11,4,0)
GPGPU-Sim uArch: Shader 1 finished CTA #1 (37618,0), 7 CTAs running
GPGPU-Sim uArch: core:  1, cta: 1 initialized @(37619,0)
GPGPU-Sim uArch: Shader 12 finished CTA #0 (37629,0), 7 CTAs running
GPGPU-Sim uArch: core: 12, cta: 0 initialized @(37630,0)
GPGPU-Sim uArch: cycles simulated: 38000  inst.: 3786733 (ipc=99.7) sim_rate=126224 (inst/sec) elapsed = 0:0:00:30 / Tue Apr 16 16:55:01 2019
GPGPU-Sim PTX: 3800000 instructions simulated : ctaid=(2,10,0) tid=(10,6,0)
GPGPU-Sim uArch: Shader 10 finished CTA #0 (38300,0), 7 CTAs running
GPGPU-Sim uArch: core: 10, cta: 0 initialized @(38301,0)
GPGPU-Sim uArch: Shader 14 finished CTA #1 (38452,0), 7 CTAs running
GPGPU-Sim uArch: core: 14, cta: 1 initialized @(38453,0)
GPGPU-Sim uArch: cycles simulated: 39000  inst.: 3874443 (ipc=99.3) sim_rate=124982 (inst/sec) elapsed = 0:0:00:31 / Tue Apr 16 16:55:02 2019
GPGPU-Sim PTX: 3900000 instructions simulated : ctaid=(1,15,0) tid=(3,0,0)
GPGPU-Sim uArch: cycles simulated: 40000  inst.: 3966038 (ipc=99.2) sim_rate=123938 (inst/sec) elapsed = 0:0:00:32 / Tue Apr 16 16:55:03 2019
GPGPU-Sim uArch: Shader 13 finished CTA #1 (40018,0), 7 CTAs running
GPGPU-Sim uArch: core: 13, cta: 1 initialized @(40019,0)
GPGPU-Sim PTX: 4000000 instructions simulated : ctaid=(2,7,0) tid=(6,3,0)
GPGPU-Sim uArch: Shader 7 finished CTA #0 (40890,0), 7 CTAs running
GPGPU-Sim uArch: core:  7, cta: 0 initialized @(40891,0)
GPGPU-Sim uArch: Shader 0 finished CTA #1 (41243,0), 7 CTAs running
GPGPU-Sim uArch: core:  0, cta: 1 initialized @(41244,0)
GPGPU-Sim PTX: 4100000 instructions simulated : ctaid=(2,8,0) tid=(10,2,0)
GPGPU-Sim uArch: cycles simulated: 41500  inst.: 4106072 (ipc=98.9) sim_rate=124426 (inst/sec) elapsed = 0:0:00:33 / Tue Apr 16 16:55:04 2019
GPGPU-Sim uArch: Shader 2 finished CTA #1 (41622,0), 7 CTAs running
GPGPU-Sim uArch: core:  2, cta: 1 initialized @(41623,0)
GPGPU-Sim PTX: 4200000 instructions simulated : ctaid=(0,8,0) tid=(5,11,0)
GPGPU-Sim uArch: cycles simulated: 42500  inst.: 4189772 (ipc=98.6) sim_rate=123228 (inst/sec) elapsed = 0:0:00:34 / Tue Apr 16 16:55:05 2019
GPGPU-Sim uArch: Shader 3 finished CTA #1 (42934,0), 7 CTAs running
GPGPU-Sim uArch: core:  3, cta: 1 initialized @(42935,0)
GPGPU-Sim PTX: 4300000 instructions simulated : ctaid=(3,14,0) tid=(2,1,0)
GPGPU-Sim uArch: Shader 8 finished CTA #0 (43623,0), 7 CTAs running
GPGPU-Sim uArch: core:  8, cta: 0 initialized @(43624,0)
GPGPU-Sim uArch: cycles simulated: 44000  inst.: 4333301 (ipc=98.5) sim_rate=123808 (inst/sec) elapsed = 0:0:00:35 / Tue Apr 16 16:55:06 2019
GPGPU-Sim PTX: 4400000 instructions simulated : ctaid=(5,8,0) tid=(6,6,0)
GPGPU-Sim uArch: cycles simulated: 45500  inst.: 4476292 (ipc=98.4) sim_rate=124341 (inst/sec) elapsed = 0:0:00:36 / Tue Apr 16 16:55:07 2019
GPGPU-Sim PTX: 4500000 instructions simulated : ctaid=(0,12,0) tid=(12,6,0)
GPGPU-Sim uArch: Shader 9 finished CTA #0 (46075,0), 7 CTAs running
GPGPU-Sim uArch: core:  9, cta: 0 initialized @(46076,0)
GPGPU-Sim uArch: cycles simulated: 46500  inst.: 4572796 (ipc=98.3) sim_rate=123589 (inst/sec) elapsed = 0:0:00:37 / Tue Apr 16 16:55:08 2019
GPGPU-Sim PTX: 4600000 instructions simulated : ctaid=(1,9,0) tid=(4,10,0)
GPGPU-Sim PTX: 4700000 instructions simulated : ctaid=(4,9,0) tid=(10,9,0)
GPGPU-Sim uArch: Shader 5 finished CTA #1 (47793,0), 7 CTAs running
GPGPU-Sim uArch: core:  5, cta: 1 initialized @(47794,0)
GPGPU-Sim uArch: cycles simulated: 48000  inst.: 4716564 (ipc=98.3) sim_rate=124120 (inst/sec) elapsed = 0:0:00:38 / Tue Apr 16 16:55:09 2019
GPGPU-Sim uArch: Shader 6 finished CTA #1 (48348,0), 7 CTAs running
GPGPU-Sim uArch: core:  6, cta: 1 initialized @(48349,0)
GPGPU-Sim PTX: 4800000 instructions simulated : ctaid=(0,18,0) tid=(12,6,0)
GPGPU-Sim uArch: cycles simulated: 49500  inst.: 4857603 (ipc=98.1) sim_rate=124553 (inst/sec) elapsed = 0:0:00:39 / Tue Apr 16 16:55:10 2019
GPGPU-Sim PTX: 4900000 instructions simulated : ctaid=(4,10,0) tid=(11,9,0)
GPGPU-Sim uArch: cycles simulated: 50500  inst.: 4940308 (ipc=97.8) sim_rate=123507 (inst/sec) elapsed = 0:0:00:40 / Tue Apr 16 16:55:11 2019
GPGPU-Sim uArch: Shader 4 finished CTA #1 (50671,0), 7 CTAs running
GPGPU-Sim uArch: core:  4, cta: 1 initialized @(50672,0)
GPGPU-Sim PTX: 5000000 instructions simulated : ctaid=(4,19,0) tid=(0,0,0)
GPGPU-Sim uArch: cycles simulated: 52000  inst.: 5070027 (ipc=97.5) sim_rate=123659 (inst/sec) elapsed = 0:0:00:41 / Tue Apr 16 16:55:12 2019
GPGPU-Sim PTX: 5100000 instructions simulated : ctaid=(5,13,0) tid=(12,0,0)
GPGPU-Sim PTX: 5200000 instructions simulated : ctaid=(3,9,0) tid=(3,9,0)
GPGPU-Sim uArch: cycles simulated: 53500  inst.: 5196053 (ipc=97.1) sim_rate=123715 (inst/sec) elapsed = 0:0:00:42 / Tue Apr 16 16:55:13 2019
GPGPU-Sim uArch: Shader 14 finished CTA #2 (53949,0), 7 CTAs running
GPGPU-Sim uArch: core: 14, cta: 2 initialized @(53950,0)
GPGPU-Sim PTX: 5300000 instructions simulated : ctaid=(2,15,0) tid=(3,0,0)
GPGPU-Sim uArch: Shader 13 finished CTA #2 (54995,0), 7 CTAs running
GPGPU-Sim uArch: core: 13, cta: 2 initialized @(54996,0)
GPGPU-Sim uArch: cycles simulated: 55000  inst.: 5341627 (ipc=97.1) sim_rate=124223 (inst/sec) elapsed = 0:0:00:43 / Tue Apr 16 16:55:14 2019
GPGPU-Sim PTX: 5400000 instructions simulated : ctaid=(0,15,0) tid=(0,6,0)
GPGPU-Sim uArch: cycles simulated: 56000  inst.: 5447453 (ipc=97.3) sim_rate=123805 (inst/sec) elapsed = 0:0:00:44 / Tue Apr 16 16:55:15 2019
GPGPU-Sim uArch: Shader 2 finished CTA #2 (56295,0), 7 CTAs running
GPGPU-Sim uArch: core:  2, cta: 2 initialized @(56296,0)
GPGPU-Sim PTX: 5500000 instructions simulated : ctaid=(0,17,0) tid=(4,5,0)
GPGPU-Sim uArch: Shader 3 finished CTA #2 (56425,0), 7 CTAs running
GPGPU-Sim uArch: core:  3, cta: 2 initialized @(56426,0)
GPGPU-Sim uArch: Shader 0 finished CTA #2 (56532,0), 7 CTAs running
GPGPU-Sim uArch: core:  0, cta: 2 initialized @(56533,0)
GPGPU-Sim uArch: Shader 11 finished CTA #1 (56927,0), 7 CTAs running
GPGPU-Sim uArch: core: 11, cta: 1 initialized @(56928,0)
GPGPU-Sim uArch: Shader 12 finished CTA #1 (57062,0), 7 CTAs running
GPGPU-Sim uArch: core: 12, cta: 1 initialized @(57063,0)
GPGPU-Sim PTX: 5600000 instructions simulated : ctaid=(1,17,0) tid=(1,7,0)
GPGPU-Sim uArch: cycles simulated: 57500  inst.: 5591305 (ipc=97.2) sim_rate=124251 (inst/sec) elapsed = 0:0:00:45 / Tue Apr 16 16:55:16 2019
GPGPU-Sim uArch: Shader 1 finished CTA #2 (57806,0), 7 CTAs running
GPGPU-Sim uArch: core:  1, cta: 2 initialized @(57807,0)
GPGPU-Sim uArch: cycles simulated: 58500  inst.: 5678962 (ipc=97.1) sim_rate=123455 (inst/sec) elapsed = 0:0:00:46 / Tue Apr 16 16:55:17 2019
GPGPU-Sim PTX: 5700000 instructions simulated : ctaid=(1,11,0) tid=(1,10,0)
GPGPU-Sim uArch: Shader 10 finished CTA #1 (58909,0), 7 CTAs running
GPGPU-Sim uArch: core: 10, cta: 1 initialized @(58910,0)
GPGPU-Sim PTX: 5800000 instructions simulated : ctaid=(0,9,0) tid=(9,7,0)
GPGPU-Sim uArch: cycles simulated: 60000  inst.: 5828078 (ipc=97.1) sim_rate=124001 (inst/sec) elapsed = 0:0:00:47 / Tue Apr 16 16:55:18 2019
GPGPU-Sim PTX: 5900000 instructions simulated : ctaid=(3,15,0) tid=(2,2,0)
GPGPU-Sim uArch: Shader 9 finished CTA #1 (61470,0), 7 CTAs running
GPGPU-Sim uArch: core:  9, cta: 1 initialized @(61471,0)
GPGPU-Sim uArch: cycles simulated: 61500  inst.: 5975117 (ipc=97.2) sim_rate=124481 (inst/sec) elapsed = 0:0:00:48 / Tue Apr 16 16:55:19 2019
GPGPU-Sim PTX: 6000000 instructions simulated : ctaid=(2,15,0) tid=(9,5,0)
GPGPU-Sim uArch: cycles simulated: 62500  inst.: 6072174 (ipc=97.2) sim_rate=123921 (inst/sec) elapsed = 0:0:00:49 / Tue Apr 16 16:55:20 2019
GPGPU-Sim PTX: 6100000 instructions simulated : ctaid=(0,18,0) tid=(11,6,0)
GPGPU-Sim PTX: 6200000 instructions simulated : ctaid=(5,19,0) tid=(4,5,0)
GPGPU-Sim uArch: cycles simulated: 64000  inst.: 6203352 (ipc=96.9) sim_rate=124067 (inst/sec) elapsed = 0:0:00:50 / Tue Apr 16 16:55:21 2019
GPGPU-Sim PTX: 6300000 instructions simulated : ctaid=(1,8,0) tid=(11,12,0)
GPGPU-Sim uArch: cycles simulated: 65500  inst.: 6337803 (ipc=96.8) sim_rate=124270 (inst/sec) elapsed = 0:0:00:51 / Tue Apr 16 16:55:22 2019
GPGPU-Sim PTX: 6400000 instructions simulated : ctaid=(5,18,0) tid=(4,10,0)
GPGPU-Sim uArch: Shader 14 finished CTA #3 (65955,0), 7 CTAs running
GPGPU-Sim uArch: core: 14, cta: 3 initialized @(65956,0)
GPGPU-Sim uArch: Shader 5 finished CTA #2 (66068,0), 7 CTAs running
GPGPU-Sim uArch: core:  5, cta: 2 initialized @(66069,0)
GPGPU-Sim uArch: cycles simulated: 66500  inst.: 6437656 (ipc=96.8) sim_rate=123801 (inst/sec) elapsed = 0:0:00:52 / Tue Apr 16 16:55:23 2019
GPGPU-Sim PTX: 6500000 instructions simulated : ctaid=(5,20,0) tid=(2,6,0)
GPGPU-Sim uArch: Shader 8 finished CTA #1 (67491,0), 7 CTAs running
GPGPU-Sim uArch: core:  8, cta: 1 initialized @(67492,0)
GPGPU-Sim uArch: cycles simulated: 67500  inst.: 6521889 (ipc=96.6) sim_rate=123054 (inst/sec) elapsed = 0:0:00:53 / Tue Apr 16 16:55:24 2019
GPGPU-Sim PTX: 6600000 instructions simulated : ctaid=(2,20,0) tid=(11,9,0)
GPGPU-Sim uArch: Shader 4 finished CTA #2 (68075,0), 7 CTAs running
GPGPU-Sim uArch: core:  4, cta: 2 initialized @(68076,0)
GPGPU-Sim uArch: Shader 13 finished CTA #3 (68092,0), 7 CTAs running
GPGPU-Sim uArch: core: 13, cta: 3 initialized @(68093,0)
GPGPU-Sim uArch: Shader 0 finished CTA #3 (68741,0), 7 CTAs running
GPGPU-Sim uArch: core:  0, cta: 3 initialized @(68742,0)
GPGPU-Sim uArch: cycles simulated: 69000  inst.: 6669043 (ipc=96.7) sim_rate=123500 (inst/sec) elapsed = 0:0:00:54 / Tue Apr 16 16:55:25 2019
GPGPU-Sim PTX: 6700000 instructions simulated : ctaid=(1,25,0) tid=(3,1,0)
GPGPU-Sim uArch: cycles simulated: 70000  inst.: 6766650 (ipc=96.7) sim_rate=123030 (inst/sec) elapsed = 0:0:00:55 / Tue Apr 16 16:55:26 2019
GPGPU-Sim uArch: Shader 7 finished CTA #1 (70083,0), 7 CTAs running
GPGPU-Sim uArch: core:  7, cta: 1 initialized @(70084,0)
GPGPU-Sim PTX: 6800000 instructions simulated : ctaid=(3,24,0) tid=(12,1,0)
GPGPU-Sim uArch: Shader 6 finished CTA #2 (70222,0), 7 CTAs running
GPGPU-Sim uArch: core:  6, cta: 2 initialized @(70223,0)
GPGPU-Sim PTX: 6900000 instructions simulated : ctaid=(4,25,0) tid=(0,7,0)
GPGPU-Sim uArch: cycles simulated: 71500  inst.: 6913787 (ipc=96.7) sim_rate=123460 (inst/sec) elapsed = 0:0:00:56 / Tue Apr 16 16:55:27 2019
GPGPU-Sim PTX: 7000000 instructions simulated : ctaid=(0,10,0) tid=(10,2,0)
GPGPU-Sim uArch: Shader 3 finished CTA #3 (72344,0), 7 CTAs running
GPGPU-Sim uArch: core:  3, cta: 3 initialized @(72345,0)
GPGPU-Sim uArch: Shader 2 finished CTA #3 (72553,0), 7 CTAs running
GPGPU-Sim uArch: core:  2, cta: 3 initialized @(72554,0)
GPGPU-Sim uArch: cycles simulated: 73000  inst.: 7060935 (ipc=96.7) sim_rate=123876 (inst/sec) elapsed = 0:0:00:57 / Tue Apr 16 16:55:28 2019
GPGPU-Sim PTX: 7100000 instructions simulated : ctaid=(2,23,0) tid=(10,1,0)
GPGPU-Sim uArch: Shader 11 finished CTA #2 (73455,0), 7 CTAs running
GPGPU-Sim uArch: core: 11, cta: 2 initialized @(73456,0)
GPGPU-Sim uArch: Shader 10 finished CTA #2 (73586,0), 7 CTAs running
GPGPU-Sim uArch: core: 10, cta: 2 initialized @(73587,0)
GPGPU-Sim uArch: Shader 1 finished CTA #3 (73628,0), 7 CTAs running
GPGPU-Sim uArch: core:  1, cta: 3 initialized @(73629,0)
GPGPU-Sim PTX: 7200000 instructions simulated : ctaid=(0,6,0) tid=(12,7,0)
GPGPU-Sim uArch: cycles simulated: 74500  inst.: 7207711 (ipc=96.7) sim_rate=124270 (inst/sec) elapsed = 0:0:00:58 / Tue Apr 16 16:55:29 2019
GPGPU-Sim PTX: 7300000 instructions simulated : ctaid=(4,24,0) tid=(7,11,0)
GPGPU-Sim uArch: cycles simulated: 75500  inst.: 7312494 (ipc=96.9) sim_rate=123940 (inst/sec) elapsed = 0:0:00:59 / Tue Apr 16 16:55:30 2019
GPGPU-Sim PTX: 7400000 instructions simulated : ctaid=(3,21,0) tid=(7,6,0)
GPGPU-Sim uArch: cycles simulated: 77000  inst.: 7466136 (ipc=97.0) sim_rate=124435 (inst/sec) elapsed = 0:0:01:00 / Tue Apr 16 16:55:31 2019
GPGPU-Sim PTX: 7500000 instructions simulated : ctaid=(4,23,0) tid=(4,5,0)
GPGPU-Sim PTX: 7600000 instructions simulated : ctaid=(2,6,0) tid=(7,8,0)
GPGPU-Sim uArch: cycles simulated: 78500  inst.: 7621749 (ipc=97.1) sim_rate=124946 (inst/sec) elapsed = 0:0:01:01 / Tue Apr 16 16:55:32 2019
GPGPU-Sim uArch: Shader 12 finished CTA #2 (78832,0), 7 CTAs running
GPGPU-Sim uArch: core: 12, cta: 2 initialized @(78833,0)
GPGPU-Sim PTX: 7700000 instructions simulated : ctaid=(4,8,0) tid=(3,4,0)
GPGPU-Sim uArch: Shader 0 finished CTA #4 (79023,0), 7 CTAs running
GPGPU-Sim PTX: 7800000 instructions simulated : ctaid=(2,26,0) tid=(11,0,0)
GPGPU-Sim uArch: cycles simulated: 80000  inst.: 7780097 (ipc=97.3) sim_rate=125485 (inst/sec) elapsed = 0:0:01:02 / Tue Apr 16 16:55:33 2019
GPGPU-Sim PTX: 7900000 instructions simulated : ctaid=(3,22,0) tid=(9,6,0)
GPGPU-Sim uArch: cycles simulated: 81500  inst.: 7933527 (ipc=97.3) sim_rate=125929 (inst/sec) elapsed = 0:0:01:03 / Tue Apr 16 16:55:34 2019
GPGPU-Sim uArch: Shader 14 finished CTA #4 (81554,0), 7 CTAs running
GPGPU-Sim PTX: 8000000 instructions simulated : ctaid=(3,21,0) tid=(3,2,0)
GPGPU-Sim uArch: Shader 1 finished CTA #4 (82054,0), 7 CTAs running
GPGPU-Sim uArch: cycles simulated: 82500  inst.: 8040195 (ipc=97.5) sim_rate=125628 (inst/sec) elapsed = 0:0:01:04 / Tue Apr 16 16:55:35 2019
GPGPU-Sim PTX: 8100000 instructions simulated : ctaid=(4,23,0) tid=(5,1,0)
GPGPU-Sim uArch: Shader 13 finished CTA #4 (83278,0), 7 CTAs running
GPGPU-Sim PTX: 8200000 instructions simulated : ctaid=(4,25,0) tid=(3,1,0)
GPGPU-Sim uArch: cycles simulated: 84000  inst.: 8191680 (ipc=97.5) sim_rate=126025 (inst/sec) elapsed = 0:0:01:05 / Tue Apr 16 16:55:36 2019
GPGPU-Sim uArch: Shader 4 finished CTA #3 (84634,0), 7 CTAs running
GPGPU-Sim PTX: 8300000 instructions simulated : ctaid=(1,17,0) tid=(7,7,0)
GPGPU-Sim uArch: Shader 2 finished CTA #4 (84842,0), 7 CTAs running
GPGPU-Sim uArch: Shader 10 finished CTA #3 (85036,0), 7 CTAs running
GPGPU-Sim uArch: cycles simulated: 85500  inst.: 8350073 (ipc=97.7) sim_rate=126516 (inst/sec) elapsed = 0:0:01:06 / Tue Apr 16 16:55:37 2019
GPGPU-Sim PTX: 8400000 instructions simulated : ctaid=(0,17,0) tid=(10,7,0)
GPGPU-Sim uArch: Shader 7 finished CTA #2 (85992,0), 7 CTAs running
GPGPU-Sim uArch: cycles simulated: 86500  inst.: 8465165 (ipc=97.9) sim_rate=126345 (inst/sec) elapsed = 0:0:01:07 / Tue Apr 16 16:55:38 2019
GPGPU-Sim PTX: 8500000 instructions simulated : ctaid=(4,12,0) tid=(7,3,0)
GPGPU-Sim uArch: Shader 8 finished CTA #2 (86676,0), 7 CTAs running
GPGPU-Sim uArch: Shader 3 finished CTA #4 (86881,0), 7 CTAs running
GPGPU-Sim uArch: Shader 5 finished CTA #3 (87541,0), 7 CTAs running
GPGPU-Sim PTX: 8600000 instructions simulated : ctaid=(5,18,0) tid=(8,0,0)
GPGPU-Sim uArch: cycles simulated: 88000  inst.: 8612546 (ipc=97.9) sim_rate=126655 (inst/sec) elapsed = 0:0:01:08 / Tue Apr 16 16:55:39 2019
GPGPU-Sim PTX: 8700000 instructions simulated : ctaid=(2,24,0) tid=(1,12,0)
GPGPU-Sim PTX: 8800000 instructions simulated : ctaid=(5,24,0) tid=(6,5,0)
GPGPU-Sim uArch: Shader 13 finished CTA #5 (89471,0), 6 CTAs running
GPGPU-Sim uArch: cycles simulated: 89500  inst.: 8785414 (ipc=98.2) sim_rate=127324 (inst/sec) elapsed = 0:0:01:09 / Tue Apr 16 16:55:40 2019
GPGPU-Sim uArch: Shader 11 finished CTA #3 (89888,0), 7 CTAs running
GPGPU-Sim uArch: Shader 14 finished CTA #5 (90077,0), 6 CTAs running
GPGPU-Sim PTX: 8900000 instructions simulated : ctaid=(1,26,0) tid=(0,1,0)
GPGPU-Sim uArch: Shader 0 finished CTA #5 (90296,0), 6 CTAs running
GPGPU-Sim uArch: Shader 12 finished CTA #3 (90730,0), 7 CTAs running
GPGPU-Sim uArch: Shader 6 finished CTA #3 (90875,0), 7 CTAs running
GPGPU-Sim uArch: Shader 9 finished CTA #2 (90885,0), 7 CTAs running
GPGPU-Sim uArch: cycles simulated: 91000  inst.: 8966991 (ipc=98.5) sim_rate=128099 (inst/sec) elapsed = 0:0:01:10 / Tue Apr 16 16:55:41 2019
GPGPU-Sim PTX: 9000000 instructions simulated : ctaid=(5,19,0) tid=(11,4,0)
GPGPU-Sim PTX: 9100000 instructions simulated : ctaid=(1,17,0) tid=(5,8,0)
GPGPU-Sim uArch: cycles simulated: 92500  inst.: 9147922 (ipc=98.9) sim_rate=128843 (inst/sec) elapsed = 0:0:01:11 / Tue Apr 16 16:55:42 2019
GPGPU-Sim uArch: Shader 1 finished CTA #5 (92545,0), 6 CTAs running
GPGPU-Sim PTX: 9200000 instructions simulated : ctaid=(3,19,0) tid=(11,12,0)
GPGPU-Sim PTX: 9300000 instructions simulated : ctaid=(3,19,0) tid=(5,8,0)
GPGPU-Sim uArch: Shader 10 finished CTA #4 (94342,0), 6 CTAs running
GPGPU-Sim PTX: 9400000 instructions simulated : ctaid=(0,17,0) tid=(0,8,0)
GPGPU-Sim uArch: cycles simulated: 94500  inst.: 9385530 (ipc=99.3) sim_rate=130354 (inst/sec) elapsed = 0:0:01:12 / Tue Apr 16 16:55:43 2019
GPGPU-Sim uArch: Shader 3 finished CTA #5 (94867,0), 6 CTAs running
GPGPU-Sim uArch: Shader 12 finished CTA #4 (95161,0), 6 CTAs running
GPGPU-Sim PTX: 9500000 instructions simulated : ctaid=(2,27,0) tid=(2,5,0)
GPGPU-Sim uArch: Shader 4 finished CTA #4 (95394,0), 6 CTAs running
GPGPU-Sim PTX: 9600000 instructions simulated : ctaid=(5,24,0) tid=(1,10,0)
GPGPU-Sim uArch: cycles simulated: 96000  inst.: 9574642 (ipc=99.7) sim_rate=131159 (inst/sec) elapsed = 0:0:01:13 / Tue Apr 16 16:55:44 2019
GPGPU-Sim uArch: Shader 14 finished CTA #6 (96016,0), 5 CTAs running
GPGPU-Sim uArch: Shader 13 finished CTA #6 (96484,0), 5 CTAs running
GPGPU-Sim uArch: Shader 0 finished CTA #6 (96579,0), 5 CTAs running
GPGPU-Sim uArch: Shader 11 finished CTA #4 (96607,0), 6 CTAs running
GPGPU-Sim PTX: 9700000 instructions simulated : ctaid=(0,27,0) tid=(7,0,0)
GPGPU-Sim uArch: Shader 2 finished CTA #5 (96967,0), 6 CTAs running
GPGPU-Sim uArch: Shader 1 finished CTA #6 (96983,0), 5 CTAs running
GPGPU-Sim uArch: cycles simulated: 97000  inst.: 9702963 (ipc=100.0) sim_rate=131121 (inst/sec) elapsed = 0:0:01:14 / Tue Apr 16 16:55:45 2019
GPGPU-Sim uArch: Shader 0 finished CTA #7 (97319,0), 4 CTAs running
GPGPU-Sim PTX: 9800000 instructions simulated : ctaid=(3,16,0) tid=(6,2,0)
GPGPU-Sim uArch: Shader 10 finished CTA #5 (97770,0), 5 CTAs running
GPGPU-Sim uArch: Shader 12 finished CTA #5 (97941,0), 5 CTAs running
GPGPU-Sim PTX: 9900000 instructions simulated : ctaid=(0,22,0) tid=(3,8,0)
GPGPU-Sim uArch: Shader 14 finished CTA #7 (98745,0), 4 CTAs running
GPGPU-Sim uArch: Shader 13 finished CTA #7 (98870,0), 4 CTAs running
GPGPU-Sim uArch: cycles simulated: 99000  inst.: 9942911 (ipc=100.4) sim_rate=132572 (inst/sec) elapsed = 0:0:01:15 / Tue Apr 16 16:55:46 2019
GPGPU-Sim uArch: Shader 5 finished CTA #4 (99006,0), 6 CTAs running
GPGPU-Sim uArch: Shader 7 finished CTA #3 (99208,0), 6 CTAs running
GPGPU-Sim PTX: 10000000 instructions simulated : ctaid=(4,26,0) tid=(7,11,0)
GPGPU-Sim PTX: 10100000 instructions simulated : ctaid=(1,11,0) tid=(5,4,0)
GPGPU-Sim uArch: cycles simulated: 100500  inst.: 10112193 (ipc=100.6) sim_rate=133055 (inst/sec) elapsed = 0:0:01:16 / Tue Apr 16 16:55:47 2019
GPGPU-Sim uArch: Shader 11 finished CTA #5 (100910,0), 5 CTAs running
GPGPU-Sim PTX: 10200000 instructions simulated : ctaid=(3,17,0) tid=(4,12,0)
GPGPU-Sim uArch: Shader 14 finished CTA #0 (101085,0), 3 CTAs running
GPGPU-Sim uArch: Shader 6 finished CTA #4 (101175,0), 6 CTAs running
GPGPU-Sim uArch: Shader 10 finished CTA #6 (101613,0), 4 CTAs running
GPGPU-Sim uArch: Shader 0 finished CTA #0 (101688,0), 3 CTAs running
GPGPU-Sim PTX: 10300000 instructions simulated : ctaid=(5,17,0) tid=(0,3,0)
GPGPU-Sim uArch: Shader 3 finished CTA #6 (101860,0), 5 CTAs running
GPGPU-Sim uArch: cycles simulated: 102000  inst.: 10300176 (ipc=101.0) sim_rate=133768 (inst/sec) elapsed = 0:0:01:17 / Tue Apr 16 16:55:48 2019
GPGPU-Sim uArch: Shader 13 finished CTA #0 (102016,0), 3 CTAs running
GPGPU-Sim uArch: Shader 4 finished CTA #5 (102178,0), 5 CTAs running
GPGPU-Sim uArch: Shader 1 finished CTA #7 (102257,0), 4 CTAs running
GPGPU-Sim uArch: Shader 2 finished CTA #6 (102267,0), 5 CTAs running
GPGPU-Sim uArch: Shader 12 finished CTA #6 (102362,0), 4 CTAs running
GPGPU-Sim PTX: 10400000 instructions simulated : ctaid=(2,19,0) tid=(7,12,0)
GPGPU-Sim uArch: Shader 8 finished CTA #3 (102559,0), 6 CTAs running
GPGPU-Sim uArch: Shader 0 finished CTA #1 (103246,0), 2 CTAs running
GPGPU-Sim uArch: Shader 12 finished CTA #7 (103313,0), 3 CTAs running
GPGPU-Sim PTX: 10500000 instructions simulated : ctaid=(3,25,0) tid=(9,6,0)
GPGPU-Sim uArch: Shader 14 finished CTA #1 (103453,0), 2 CTAs running
GPGPU-Sim uArch: cycles simulated: 103500  inst.: 10486428 (ipc=101.3) sim_rate=134441 (inst/sec) elapsed = 0:0:01:18 / Tue Apr 16 16:55:49 2019
GPGPU-Sim uArch: Shader 13 finished CTA #1 (103585,0), 2 CTAs running
GPGPU-Sim uArch: Shader 11 finished CTA #6 (103784,0), 4 CTAs running
GPGPU-Sim uArch: Shader 4 finished CTA #6 (103989,0), 4 CTAs running
GPGPU-Sim PTX: 10600000 instructions simulated : ctaid=(1,19,0) tid=(7,2,0)
GPGPU-Sim uArch: Shader 6 finished CTA #5 (104449,0), 5 CTAs running
GPGPU-Sim uArch: Shader 3 finished CTA #7 (105099,0), 4 CTAs running
GPGPU-Sim uArch: Shader 10 finished CTA #7 (105143,0), 3 CTAs running
GPGPU-Sim PTX: 10700000 instructions simulated : ctaid=(1,24,0) tid=(9,4,0)
GPGPU-Sim uArch: Shader 7 finished CTA #4 (105290,0), 5 CTAs running
GPGPU-Sim uArch: Shader 0 finished CTA #2 (105310,0), 1 CTAs running
GPGPU-Sim uArch: Shader 12 finished CTA #0 (105397,0), 2 CTAs running
GPGPU-Sim uArch: cycles simulated: 105500  inst.: 10697182 (ipc=101.4) sim_rate=135407 (inst/sec) elapsed = 0:0:01:19 / Tue Apr 16 16:55:50 2019
GPGPU-Sim uArch: Shader 14 finished CTA #2 (105593,0), 1 CTAs running
GPGPU-Sim uArch: Shader 13 finished CTA #2 (105748,0), 1 CTAs running
GPGPU-Sim uArch: Shader 2 finished CTA #7 (105789,0), 4 CTAs running
GPGPU-Sim PTX: 10800000 instructions simulated : ctaid=(4,23,0) tid=(0,3,0)
GPGPU-Sim uArch: Shader 0 finished CTA #3 (106179,0), 0 CTAs running
GPGPU-Sim uArch: Shader 0 empty (release kernel 1 '_Z17executeFirstLayerPfS_S_').
GPGPU-Sim uArch: Shader 11 finished CTA #7 (106344,0), 3 CTAs running
GPGPU-Sim uArch: Shader 13 finished CTA #3 (106738,0), 0 CTAs running
GPGPU-Sim uArch: Shader 13 empty (release kernel 1 '_Z17executeFirstLayerPfS_S_').
GPGPU-Sim uArch: Shader 4 finished CTA #7 (106851,0), 3 CTAs running
GPGPU-Sim uArch: Shader 1 finished CTA #0 (107083,0), 3 CTAs running
GPGPU-Sim PTX: 10900000 instructions simulated : ctaid=(3,22,0) tid=(9,9,0)
GPGPU-Sim uArch: Shader 5 finished CTA #5 (107222,0), 5 CTAs running
GPGPU-Sim uArch: cycles simulated: 107500  inst.: 10893348 (ipc=101.3) sim_rate=136166 (inst/sec) elapsed = 0:0:01:20 / Tue Apr 16 16:55:51 2019
GPGPU-Sim PTX: 11000000 instructions simulated : ctaid=(5,27,0) tid=(6,12,0)
GPGPU-Sim uArch: Shader 8 finished CTA #4 (108942,0), 5 CTAs running
GPGPU-Sim uArch: Shader 11 finished CTA #0 (108981,0), 2 CTAs running
GPGPU-Sim uArch: Shader 10 finished CTA #0 (108984,0), 2 CTAs running
GPGPU-Sim uArch: Shader 14 finished CTA #3 (109164,0), 0 CTAs running
GPGPU-Sim uArch: Shader 14 empty (release kernel 1 '_Z17executeFirstLayerPfS_S_').
GPGPU-Sim uArch: Shader 1 finished CTA #1 (109243,0), 2 CTAs running
GPGPU-Sim uArch: Shader 7 finished CTA #5 (109433,0), 4 CTAs running
GPGPU-Sim uArch: cycles simulated: 109500  inst.: 11062102 (ipc=101.0) sim_rate=136569 (inst/sec) elapsed = 0:0:01:21 / Tue Apr 16 16:55:52 2019
GPGPU-Sim PTX: 11100000 instructions simulated : ctaid=(2,16,0) tid=(9,3,0)
GPGPU-Sim uArch: Shader 9 finished CTA #3 (109512,0), 6 CTAs running
GPGPU-Sim uArch: Shader 11 finished CTA #1 (109622,0), 1 CTAs running
GPGPU-Sim uArch: Shader 6 finished CTA #6 (109816,0), 4 CTAs running
GPGPU-Sim uArch: Shader 12 finished CTA #1 (110115,0), 1 CTAs running
GPGPU-Sim uArch: Shader 11 finished CTA #2 (110276,0), 0 CTAs running
GPGPU-Sim uArch: Shader 11 empty (release kernel 1 '_Z17executeFirstLayerPfS_S_').
GPGPU-Sim uArch: Shader 12 finished CTA #2 (110383,0), 0 CTAs running
GPGPU-Sim uArch: Shader 12 empty (release kernel 1 '_Z17executeFirstLayerPfS_S_').
GPGPU-Sim PTX: 11200000 instructions simulated : ctaid=(0,27,0) tid=(3,4,0)
GPGPU-Sim uArch: Shader 7 finished CTA #6 (110840,0), 3 CTAs running
GPGPU-Sim uArch: Shader 3 finished CTA #0 (111265,0), 3 CTAs running
GPGPU-Sim uArch: Shader 7 finished CTA #7 (111450,0), 2 CTAs running
GPGPU-Sim uArch: cycles simulated: 111500  inst.: 11224501 (ipc=100.7) sim_rate=136884 (inst/sec) elapsed = 0:0:01:22 / Tue Apr 16 16:55:53 2019
GPGPU-Sim uArch: Shader 3 finished CTA #1 (111581,0), 2 CTAs running
GPGPU-Sim uArch: Shader 2 finished CTA #0 (111675,0), 3 CTAs running
GPGPU-Sim uArch: Shader 1 finished CTA #2 (111956,0), 1 CTAs running
GPGPU-Sim PTX: 11300000 instructions simulated : ctaid=(5,22,0) tid=(5,4,0)
GPGPU-Sim uArch: Shader 1 finished CTA #3 (112376,0), 0 CTAs running
GPGPU-Sim uArch: Shader 1 empty (release kernel 1 '_Z17executeFirstLayerPfS_S_').
GPGPU-Sim uArch: Shader 5 finished CTA #6 (112449,0), 4 CTAs running
GPGPU-Sim uArch: Shader 4 finished CTA #0 (112592,0), 2 CTAs running
GPGPU-Sim uArch: Shader 10 finished CTA #1 (112648,0), 1 CTAs running
GPGPU-Sim uArch: Shader 7 finished CTA #0 (112723,0), 1 CTAs running
GPGPU-Sim uArch: Shader 10 finished CTA #2 (113071,0), 0 CTAs running
GPGPU-Sim uArch: Shader 10 empty (release kernel 1 '_Z17executeFirstLayerPfS_S_').
GPGPU-Sim uArch: Shader 3 finished CTA #2 (113381,0), 1 CTAs running
GPGPU-Sim PTX: 11400000 instructions simulated : ctaid=(4,26,0) tid=(12,3,0)
GPGPU-Sim uArch: Shader 2 finished CTA #1 (113632,0), 2 CTAs running
GPGPU-Sim uArch: Shader 6 finished CTA #7 (113752,0), 3 CTAs running
GPGPU-Sim uArch: Shader 3 finished CTA #3 (113790,0), 0 CTAs running
GPGPU-Sim uArch: Shader 3 empty (release kernel 1 '_Z17executeFirstLayerPfS_S_').
GPGPU-Sim uArch: Shader 7 finished CTA #1 (113825,0), 0 CTAs running
GPGPU-Sim uArch: Shader 7 empty (release kernel 1 '_Z17executeFirstLayerPfS_S_').
GPGPU-Sim uArch: cycles simulated: 114000  inst.: 11382056 (ipc=99.8) sim_rate=137133 (inst/sec) elapsed = 0:0:01:23 / Tue Apr 16 16:55:54 2019
GPGPU-Sim uArch: Shader 8 finished CTA #5 (114784,0), 4 CTAs running
GPGPU-Sim uArch: Shader 2 finished CTA #2 (115036,0), 1 CTAs running
GPGPU-Sim uArch: Shader 2 finished CTA #3 (115502,0), 0 CTAs running
GPGPU-Sim uArch: Shader 2 empty (release kernel 1 '_Z17executeFirstLayerPfS_S_').
GPGPU-Sim uArch: Shader 4 finished CTA #1 (115598,0), 1 CTAs running
GPGPU-Sim uArch: Shader 5 finished CTA #7 (115665,0), 3 CTAs running
GPGPU-Sim PTX: 11500000 instructions simulated : ctaid=(4,18,0) tid=(8,2,0)
GPGPU-Sim uArch: Shader 4 finished CTA #2 (116158,0), 0 CTAs running
GPGPU-Sim uArch: Shader 4 empty (release kernel 1 '_Z17executeFirstLayerPfS_S_').
GPGPU-Sim uArch: Shader 6 finished CTA #0 (116289,0), 2 CTAs running
GPGPU-Sim uArch: Shader 9 finished CTA #4 (116516,0), 5 CTAs running
GPGPU-Sim uArch: cycles simulated: 118000  inst.: 11523043 (ipc=97.7) sim_rate=137179 (inst/sec) elapsed = 0:0:01:24 / Tue Apr 16 16:55:55 2019
GPGPU-Sim uArch: Shader 8 finished CTA #6 (118117,0), 3 CTAs running
GPGPU-Sim uArch: Shader 6 finished CTA #1 (118514,0), 1 CTAs running
GPGPU-Sim uArch: Shader 5 finished CTA #0 (118654,0), 2 CTAs running
GPGPU-Sim uArch: Shader 6 finished CTA #2 (119258,0), 0 CTAs running
GPGPU-Sim uArch: Shader 6 empty (release kernel 1 '_Z17executeFirstLayerPfS_S_').
GPGPU-Sim PTX: 11600000 instructions simulated : ctaid=(1,23,0) tid=(6,3,0)
GPGPU-Sim uArch: Shader 9 finished CTA #5 (119888,0), 4 CTAs running
GPGPU-Sim uArch: Shader 5 finished CTA #1 (120585,0), 1 CTAs running
GPGPU-Sim uArch: Shader 8 finished CTA #7 (122131,0), 2 CTAs running
GPGPU-Sim uArch: Shader 9 finished CTA #6 (122328,0), 3 CTAs running
GPGPU-Sim uArch: Shader 5 finished CTA #2 (123217,0), 0 CTAs running
GPGPU-Sim uArch: Shader 5 empty (release kernel 1 '_Z17executeFirstLayerPfS_S_').
GPGPU-Sim uArch: Shader 8 finished CTA #0 (124053,0), 1 CTAs running
GPGPU-Sim uArch: Shader 8 finished CTA #1 (124667,0), 0 CTAs running
GPGPU-Sim uArch: Shader 8 empty (release kernel 1 '_Z17executeFirstLayerPfS_S_').
GPGPU-Sim uArch: cycles simulated: 125500  inst.: 11655056 (ipc=92.9) sim_rate=137118 (inst/sec) elapsed = 0:0:01:25 / Tue Apr 16 16:55:56 2019
GPGPU-Sim PTX: 11700000 instructions simulated : ctaid=(2,23,0) tid=(12,2,0)
GPGPU-Sim uArch: Shader 9 finished CTA #7 (127151,0), 2 CTAs running
GPGPU-Sim uArch: Shader 9 finished CTA #0 (129346,0), 1 CTAs running
GPGPU-Sim uArch: Shader 9 finished CTA #1 (132923,0), 0 CTAs running
GPGPU-Sim uArch: Shader 9 empty (release kernel 1 '_Z17executeFirstLayerPfS_S_').
GPGPU-Sim uArch: GPU detected kernel '_Z17executeFirstLayerPfS_S_' finished on shader 9.
kernel_name = _Z17executeFirstLayerPfS_S_ 
kernel_launch_uid = 1 
gpu_sim_cycle = 132924
gpu_sim_insn = 11694074
gpu_ipc =      87.9756
gpu_tot_sim_cycle = 132924
gpu_tot_sim_insn = 11694074
gpu_tot_ipc =      87.9756
gpu_tot_issued_cta = 0
gpu_stall_dramfull = 1922
gpu_stall_icnt2sh    = 194886
gpu_total_sim_rate=137577

========= Core cache stats =========
L1I_cache:
	L1I_total_cache_accesses = 244904
	L1I_total_cache_misses = 1024
	L1I_total_cache_miss_rate = 0.0042
	L1I_total_cache_pending_hits = 0
	L1I_total_cache_reservation_fails = 4140
L1D_cache:
	L1D_cache_core[0]: Access = 10225, Miss = 5227, Miss_rate = 0.511, Pending_hits = 191, Reservation_fails = 88735
	L1D_cache_core[1]: Access = 10262, Miss = 5332, Miss_rate = 0.520, Pending_hits = 310, Reservation_fails = 95599
	L1D_cache_core[2]: Access = 10260, Miss = 5713, Miss_rate = 0.557, Pending_hits = 176, Reservation_fails = 98750
	L1D_cache_core[3]: Access = 10268, Miss = 5284, Miss_rate = 0.515, Pending_hits = 244, Reservation_fails = 97035
	L1D_cache_core[4]: Access = 9375, Miss = 5201, Miss_rate = 0.555, Pending_hits = 463, Reservation_fails = 100594
	L1D_cache_core[5]: Access = 9387, Miss = 5220, Miss_rate = 0.556, Pending_hits = 442, Reservation_fails = 106759
	L1D_cache_core[6]: Access = 9371, Miss = 5156, Miss_rate = 0.550, Pending_hits = 394, Reservation_fails = 103711
	L1D_cache_core[7]: Access = 8472, Miss = 4417, Miss_rate = 0.521, Pending_hits = 475, Reservation_fails = 98661
	L1D_cache_core[8]: Access = 8496, Miss = 5078, Miss_rate = 0.598, Pending_hits = 496, Reservation_fails = 110595
	L1D_cache_core[9]: Access = 8513, Miss = 4991, Miss_rate = 0.586, Pending_hits = 515, Reservation_fails = 117099
	L1D_cache_core[10]: Access = 9342, Miss = 4779, Miss_rate = 0.512, Pending_hits = 367, Reservation_fails = 96761
	L1D_cache_core[11]: Access = 9389, Miss = 4920, Miss_rate = 0.524, Pending_hits = 246, Reservation_fails = 94677
	L1D_cache_core[12]: Access = 9371, Miss = 4592, Miss_rate = 0.490, Pending_hits = 374, Reservation_fails = 93743
	L1D_cache_core[13]: Access = 10226, Miss = 5216, Miss_rate = 0.510, Pending_hits = 210, Reservation_fails = 89215
	L1D_cache_core[14]: Access = 10245, Miss = 5420, Miss_rate = 0.529, Pending_hits = 271, Reservation_fails = 90442
	L1D_total_cache_accesses = 143202
	L1D_total_cache_misses = 76546
	L1D_total_cache_miss_rate = 0.5345
	L1D_total_cache_pending_hits = 5174
	L1D_total_cache_reservation_fails = 1482376
	L1D_cache_data_port_util = 0.036
	L1D_cache_fill_port_util = 0.043
L1C_cache:
	L1C_total_cache_accesses = 28224
	L1C_total_cache_misses = 978
	L1C_total_cache_miss_rate = 0.0347
	L1C_total_cache_pending_hits = 0
	L1C_total_cache_reservation_fails = 5136
L1T_cache:
	L1T_total_cache_accesses = 0
	L1T_total_cache_misses = 0
	L1T_total_cache_pending_hits = 0
	L1T_total_cache_reservation_fails = 0

Total_core_cache_stats:
	Total_core_cache_stats_breakdown[GLOBAL_ACC_R][HIT] = 61482
	Total_core_cache_stats_breakdown[GLOBAL_ACC_R][HIT_RESERVED] = 5174
	Total_core_cache_stats_breakdown[GLOBAL_ACC_R][MISS] = 74686
	Total_core_cache_stats_breakdown[GLOBAL_ACC_R][RESERVATION_FAIL] = 1464120
	Total_core_cache_stats_breakdown[CONST_ACC_R][HIT] = 27246
	Total_core_cache_stats_breakdown[CONST_ACC_R][MISS] = 978
	Total_core_cache_stats_breakdown[CONST_ACC_R][RESERVATION_FAIL] = 5136
	Total_core_cache_stats_breakdown[GLOBAL_ACC_W][MISS] = 1860
	Total_core_cache_stats_breakdown[GLOBAL_ACC_W][RESERVATION_FAIL] = 18256
	Total_core_cache_stats_breakdown[INST_ACC_R][HIT] = 243880
	Total_core_cache_stats_breakdown[INST_ACC_R][MISS] = 1024
	Total_core_cache_stats_breakdown[INST_ACC_R][RESERVATION_FAIL] = 4140
Shader 0 warp_id issue ditsribution:
warp_id:
0, 1, 2, 3, 4, 5, 6, 7, 8, 9, 10, 11, 12, 13, 14, 15, 16, 17, 18, 19, 20, 21, 22, 23, 24, 25, 26, 27, 28, 29, 30, 31, 32, 33, 34, 35, 36, 37, 38, 39, 40, 41, 42, 43, 44, 45, 46, 47, 
distro:
845, 874, 874, 874, 874, 845, 874, 874, 874, 874, 874, 831, 874, 874, 874, 874, 874, 860, 845, 874, 874, 874, 874, 874, 437, 437, 437, 437, 437, 437, 437, 437, 437, 437, 437, 408, 437, 437, 437, 437, 437, 437, 437, 437, 437, 437, 437, 408, 
gpgpu_n_tot_thrd_icount = 13976224
gpgpu_n_tot_w_icount = 436757
gpgpu_n_stall_shd_mem = 1578298
gpgpu_n_mem_read_local = 0
gpgpu_n_mem_write_local = 0
gpgpu_n_mem_read_global = 74686
gpgpu_n_mem_write_global = 1860
gpgpu_n_mem_texture = 0
gpgpu_n_mem_const = 45
gpgpu_n_load_insn  = 1447992
gpgpu_n_store_insn = 28392
gpgpu_n_shmem_insn = 0
gpgpu_n_tex_insn = 0
gpgpu_n_const_mem_insn = 709800
gpgpu_n_param_mem_insn = 85176
gpgpu_n_shmem_bkconflict = 0
gpgpu_n_cache_bkconflict = 0
gpgpu_n_intrawarp_mshr_merge = 0
gpgpu_n_cmem_portconflict = 5136
gpgpu_stall_shd_mem[c_mem][bk_conf] = 5136
gpgpu_stall_shd_mem[c_mem][mshr_rc] = 0
gpgpu_stall_shd_mem[c_mem][icnt_rc] = 0
gpgpu_stall_shd_mem[c_mem][data_port_stall] = 0
gpgpu_stall_shd_mem[t_mem][mshr_rc] = 0
gpgpu_stall_shd_mem[t_mem][icnt_rc] = 0
gpgpu_stall_shd_mem[t_mem][data_port_stall] = 0
gpgpu_stall_shd_mem[s_mem][bk_conf] = 0
gpgpu_stall_shd_mem[gl_mem][bk_conf] = 0
gpgpu_stall_shd_mem[gl_mem][coal_stall] = 1573162
gpgpu_stall_shd_mem[gl_mem][data_port_stall] = 0
gpgpu_stall_shd_mem[g_mem_ld][mshr_rc] = 0
gpgpu_stall_shd_mem[g_mem_ld][icnt_rc] = 0
gpgpu_stall_shd_mem[g_mem_ld][wb_icnt_rc] = 0
gpgpu_stall_shd_mem[g_mem_ld][wb_rsrv_fail] = 0
gpgpu_stall_shd_mem[g_mem_st][mshr_rc] = 0
gpgpu_stall_shd_mem[g_mem_st][icnt_rc] = 0
gpgpu_stall_shd_mem[g_mem_st][wb_icnt_rc] = 0
gpgpu_stall_shd_mem[g_mem_st][wb_rsrv_fail] = 0
gpgpu_stall_shd_mem[l_mem_ld][mshr_rc] = 0
gpgpu_stall_shd_mem[l_mem_ld][icnt_rc] = 0
gpgpu_stall_shd_mem[l_mem_ld][wb_icnt_rc] = 0
gpgpu_stall_shd_mem[l_mem_ld][wb_rsrv_fail] = 0
gpgpu_stall_shd_mem[l_mem_st][mshr_rc] = 0
gpgpu_stall_shd_mem[l_mem_st][icnt_rc] = 0
gpgpu_stall_shd_mem[l_mem_ld][wb_icnt_rc] = 0
gpgpu_stall_shd_mem[l_mem_ld][wb_rsrv_fail] = 0
gpu_reg_bank_conflict_stalls = 0
Warp Occupancy Distribution:
Stall:2684165	W0_Idle:244976	W0_Scoreboard:89186	W1:1617	W2:1706	W3:1602	W4:1573	W5:1910	W6:2148	W7:2029	W8:1839	W9:69677	W10:1230	W11:880	W12:982	W13:1064	W14:1298	W15:978	W16:903	W17:828	W18:938	W19:914	W20:652	W21:625	W22:705	W23:1064	W24:1036	W25:1062	W26:1332	W27:1100	W28:1093	W29:981	W30:664	W31:754	W32:331573
traffic_breakdown_coretomem[CONST_ACC_R] = 360 {8:45,}
traffic_breakdown_coretomem[GLOBAL_ACC_R] = 597488 {8:74686,}
traffic_breakdown_coretomem[GLOBAL_ACC_W] = 172800 {40:499,72:504,136:857,}
traffic_breakdown_coretomem[INST_ACC_R] = 840 {8:105,}
traffic_breakdown_memtocore[CONST_ACC_R] = 3240 {72:45,}
traffic_breakdown_memtocore[GLOBAL_ACC_R] = 10157296 {136:74686,}
traffic_breakdown_memtocore[GLOBAL_ACC_W] = 14880 {8:1860,}
traffic_breakdown_memtocore[INST_ACC_R] = 14280 {136:105,}
maxmrqlatency = 32 
maxdqlatency = 0 
maxmflatency = 516 
averagemflatency = 171 
max_icnt2mem_latency = 140 
max_icnt2sh_latency = 132923 
mrq_lat_table:1596 	466 	115 	173 	174 	2 	0 	0 	0 	0 	0 	0 	0 	0 	0 	0 	0 	0 	0 	0 	0 	0 	0 	0 	0 	0 	0 	0 	0 	0 	0 	0 	
dq_lat_table:0 	0 	0 	0 	0 	0 	0 	0 	0 	0 	0 	0 	0 	0 	0 	0 	0 	0 	0 	0 	0 	0 	0 	0 	0 	0 	0 	0 	0 	0 	0 	0 	
mf_lat_table:0 	0 	0 	0 	0 	0 	0 	74687 	1903 	1 	0 	0 	0 	0 	0 	0 	0 	0 	0 	0 	0 	0 	0 	0 	0 	0 	0 	0 	0 	0 	0 	0 	
icnt2mem_lat_table:0 	0 	0 	69015 	7555 	119 	6 	1 	0 	0 	0 	0 	0 	0 	0 	0 	0 	0 	0 	0 	0 	0 	0 	0 	
icnt2sh_lat_table:0 	0 	0 	17820 	33080 	22254 	1575 	2 	0 	0 	0 	0 	0 	0 	284 	487 	1086 	3 	0 	0 	0 	0 	0 	0 	
mf_lat_pw_table:0 	0 	0 	0 	0 	0 	0 	262 	2 	0 	0 	0 	0 	0 	0 	0 	0 	0 	0 	0 	0 	0 	0 	0 	0 	0 	0 	0 	0 	0 	0 	0 	
maximum concurrent accesses to same row:
dram[0]:         1         0         0         0         0         0         0         0         0         0         0         0         0         0         0         0 
dram[1]:         1         0         0         0         0         0         0         0         0         0         0         0         0         0         0         0 
dram[2]:         0         0         0         0         0         0         0         0         0         0         0         0         0         0         0         0 
dram[3]:         0         0         0         0         0         0         0         0         0         0         0         0         0         0         0         0 
dram[4]:         0         0         0         0         0         0         0         0         0         0         0         0         0         0         0         0 
dram[5]:         0         0         0         0         0         0         0         0         0         0         0         0         0         0         0         0 
maximum service time to same row:
dram[0]:       350         0         0         0      1532      1563      2047      2053     18897       841     18587     29672     56563     58202         0         0 
dram[1]:      1909         0         0         0      1551      1569      2069      2049     19596     18584     20919     25785     61197     59788         0         0 
dram[2]:     16859         0         0         0      1549      1543      1950      2047      1918     18581     24238     27249     56040     62163         0         0 
dram[3]:     18091         0         0         0      1546      1537      1885      2107      1907     18653     27885     28428     56037     64131         0         0 
dram[4]:         0         0         0         0      1541      1538      1882      2066       847     19575     27947     25515     58035     65925         0         0 
dram[5]:         0         0         0         0      1569      1534      1879      2063       851     18593     27794     27518     58207     65922         0         0 
average row accesses per activate:
dram[0]:  1.000000      -nan      -nan      -nan 10.000000 10.000000 32.000000 32.000000 44.000000 43.000000 64.000000 64.000000 60.000000 60.000000      -nan      -nan 
dram[1]:  3.000000      -nan      -nan      -nan 10.000000 10.000000 32.000000 32.000000 44.000000 46.000000 64.000000 64.000000 60.000000 56.000000      -nan      -nan 
dram[2]:  2.000000      -nan      -nan      -nan 10.000000 12.000000 32.000000 32.000000 44.000000 46.000000 64.000000 64.000000 60.000000 56.000000      -nan      -nan 
dram[3]:  1.000000      -nan      -nan      -nan 10.000000 12.000000 32.000000 32.000000 44.000000 46.000000 64.000000 64.000000 60.000000 56.000000      -nan      -nan 
dram[4]:      -nan      -nan      -nan      -nan 10.000000 12.000000 32.000000 32.000000 44.000000 46.000000 64.000000 64.000000 60.000000 56.000000      -nan      -nan 
dram[5]:      -nan      -nan      -nan      -nan 10.000000 12.000000 32.000000 32.000000 44.000000 46.000000 64.000000 64.000000 60.000000 56.000000      -nan      -nan 
[...]
traffic_breakdown_coretomem[CONST_ACC_R] = 600 {8:75,}
traffic_breakdown_coretomem[GLOBAL_ACC_R] = 13119104 {8:1639888,}
traffic_breakdown_coretomem[GLOBAL_ACC_W] = 517200 {40:4279,72:1204,136:1907,}
traffic_breakdown_coretomem[INST_ACC_R] = 3000 {8:375,}
traffic_breakdown_memtocore[CONST_ACC_R] = 5400 {72:75,}
traffic_breakdown_memtocore[GLOBAL_ACC_R] = 223024768 {136:1639888,}
traffic_breakdown_memtocore[GLOBAL_ACC_W] = 59120 {8:7390,}
traffic_breakdown_memtocore[INST_ACC_R] = 51000 {136:375,}
maxmrqlatency = 89 
maxdqlatency = 0 
maxmflatency = 516 
averagemflatency = 150 
max_icnt2mem_latency = 140 
max_icnt2sh_latency = 6661977 
mrq_lat_table:7345 	873 	178 	405 	460 	22 	2 	0 	0 	0 	0 	0 	0 	0 	0 	0 	0 	0 	0 	0 	0 	0 	0 	0 	0 	0 	0 	0 	0 	0 	0 	0 	
dq_lat_table:0 	0 	0 	0 	0 	0 	0 	0 	0 	0 	0 	0 	0 	0 	0 	0 	0 	0 	0 	0 	0 	0 	0 	0 	0 	0 	0 	0 	0 	0 	0 	0 	
mf_lat_table:0 	0 	0 	0 	0 	0 	0 	1640282 	7070 	1 	0 	0 	0 	0 	0 	0 	0 	0 	0 	0 	0 	0 	0 	0 	0 	0 	0 	0 	0 	0 	0 	0 	
icnt2mem_lat_table:0 	0 	0 	1622180 	25302 	238 	7 	1 	0 	0 	0 	0 	0 	0 	0 	0 	0 	0 	0 	0 	0 	0 	0 	0 	
icnt2sh_lat_table:0 	0 	0 	1093851 	427199 	112596 	6315 	2 	0 	0 	0 	0 	0 	0 	284 	487 	1086 	348 	946 	1221 	518 	1032 	1468 	0 	
mf_lat_pw_table:0 	0 	0 	0 	0 	0 	0 	13309 	5 	0 	0 	0 	0 	0 	0 	0 	0 	0 	0 	0 	0 	0 	0 	0 	0 	0 	0 	0 	0 	0 	0 	0 	
maximum concurrent accesses to same row:
dram[0]:        64        65        64        65        29        24        32        32        44        43        64        64        62        62        46        47 
dram[1]:        64        64        64        65        28        25        32        32        44        46        64        64        62        60        47        46 
dram[2]:        65        64        64        66        30        25        32        32        44        46        64        64        62        60        46        46 
dram[3]:        65        65        64        65        28        24        32        32        44        46        64        64        62        60        46        49 
dram[4]:        64        65        64        64        25        25        32        32        44        46        64        64        62        60        46        48 
dram[5]:        64        65        65        64        26        25        32        32        44        46        64        64        62        60        46        48 
maximum service time to same row:
dram[0]:    134913    103668    382349    377954    607208    615636     56090     31539   1510812   1820878     18587     29672     56563     58202       282       288 
dram[1]:    141800    658383    373506    380140    609652    615624     59847     31760   1540787   1919572     20919     25785     61197    834462       287       288 
dram[2]:    126531    590516    373501    390626    609647    627673     46452     27258   1522728   2054645     24238     27249     56040    842594      2193       374 
dram[3]:    132716    659571    368504    383062    619858    621203     39787     45665   1533515   1557821     27885     28428     56037    849339       285       288 
dram[4]:    147603    143647    375232    383507    624083    621197     40842     41842   1550818   1504541     27947     25515     58035     65925       285       285 
dram[5]:    101790    143647    383097    398469    625685    622390     37660     74681   1663971   1518384     27794     27518     58207     65922      2178       326 
average row accesses per activate:
dram[0]: 16.666666 33.000000 48.000000 48.500000  3.068965  4.095238  2.909091  3.096774  2.440000  3.459460 48.000000 48.000000 31.666666 47.000000 39.000000 39.500000 
dram[1]: 25.000000 10.200000 48.000000 48.500000  2.838710  3.440000  3.200000  3.096774  2.837209  3.818182 48.000000 48.000000 47.000000 31.333334 39.500000 39.000000 
dram[2]: 33.000000 11.333333 48.000000 49.000000  3.560000  3.708333  3.200000  3.692308  2.904762  3.696970 48.000000 48.000000 47.000000 31.333334 39.000000 39.000000 
dram[3]: 33.000000 11.444445 48.000000 48.500000  3.034483  3.384615  3.840000  3.200000  3.275000  3.416667 48.000000 48.000000 47.000000 31.333334 39.000000 40.500000 
dram[4]: 32.666668 33.000000 48.000000 48.000000  2.774194  3.034483  3.555556  3.200000  3.219512  3.100000 48.000000 48.000000 47.000000 31.333334 39.000000 40.000000 
dram[5]: 32.666668 33.000000 48.500000 48.000000  3.739130  2.838710  3.310345  3.200000  3.705882  3.297297 48.000000 48.000000 47.000000 31.333334 39.000000 40.000000 
average row locality = 9285/1303 = 7.125864
number of total memory accesses made:
dram[0]:         0         0         0         0         0         0         0         0         0         0         0         0         0         0         0         0 
dram[1]:         0         0         0         0         0         0         0         0         0         0         0         0         0         0         0         0 
dram[2]:         0         0         0         0         0         0         0         0         0         0         0         0         0         0         0         0 
dram[3]:         0         0         0         0         0         0         0         0         0         0         0         0         0         0         0         0 
dram[4]:         0         0         0         0         0         0         0         0         0         0         0         0         0         0         0         0 
dram[5]:         0         0         0         0         0         0         0         0         0         0         0         0         0         0         0         0 
total accesses: 0
min_bank_accesses = 0!
min_chip_accesses = 0!
number of total read accesses:
dram[0]:        68        66        64        64        74        74        96        96        94        93        64        64        64        64        64        64 
dram[1]:        68        68        64        64        74        74        96        96        94        93        64        64        64        64        64        64 
dram[2]:        66        68        64        64        74        76        96        96        94        92        64        64        64        64        64        64 
dram[3]:        66        68        64        64        74        76        96        96        94        92        64        64        64        64        64        64 
dram[4]:        66        66        64        64        74        76        96        96        94        92        64        64        64        64        64        64 
dram[5]:        66        66        64        64        74        76        96        96        94        92        64        64        64        64        64        64 
total reads: 7040
bank skew: 96/64 = 1.50
chip skew: 1175/1172 = 1.00
number of total write accesses:
dram[0]:        32        33        32        33        15        12         0         0        28        35        32        32        31        30        14        15 
dram[1]:        32        34        32        33        14        12         0         0        28        33        32        32        30        30        15        14 
dram[2]:        33        34        32        34        15        13         0         0        28        30        32        32        30        30        14        14 
dram[3]:        33        35        32        33        14        12         0         0        37        31        32        32        30        30        14        17 
dram[4]:        32        33        32        32        12        12         0         0        38        32        32        32        30        30        14        16 
dram[5]:        32        33        33        32        12        12         0         0        32        30        32        32        30        30        14        16 
total reads: 2245
min_bank_accesses = 0!
chip skew: 382/370 = 1.03
average mf latency per bank:
dram[0]:      26329     28069     27353     27913     26423     27349     25036     25939     19955     20006     27204     27448     26497     28141     31853     34818
dram[1]:      25735     27253     28633     30014     27347     26271     26883     25323     18935     19921     26476     27242     27053     28463     33018     35862
dram[2]:      28057     26393     27928     26988     27651     26162     24961     26684     19322     18840     27594     27409     27969     27963     35706     32425
dram[3]:      27218     27506     28464     28936     27619     26652     25689     27587     18091     19774     26700     25790     27671     29481     35374     29921
dram[4]:      26330     27480     28154     28267     27034     26302     24773     27586     20385     18700     25865     26216     28075     28498     34273     32764
dram[5]:      28309     28462     28244     29533     26788     25786     26269     27343     22291     20404     27394     27471     26973     26713     35238     32189
maximum mf latency per bank:
dram[0]:        341       368       339       324       460       438       355       362       370       336       350       344       329       320       351       362
dram[1]:        313       470       332       482       508       486       428       500       312       507       376       287       352       460       374       470
dram[2]:        333       320       305       349       516       406       331       360       328       333       344       344       335       347       315       318
dram[3]:        357       344       301       288       400       433       366       360       331       346       355       320       318       318       401       332
dram[4]:        294       301       374       327       360       462       362       352       401       324       337       320       362       323       344       343
dram[5]:        350       310       315       303       430       453       352       362       346       362       344       334       350       316       331       334

Number of Memory Banks Accessed per Memory Operation per Warp (from 0):
0	0	0	0	0	0	0	0	0	0	0	0	0	0	0	0	0	0	0	0	0	0	0	0	0	0	0	0	0	0	0	0	0	0	0	0	0	0	0	0	0	0	0	0	0	0	0	0	0	0	0	0	0	0	0	0	0	0	0	0	0	0	0	0	0	0	0	0	0	0	0	0	0	0	0	0	0	0	0	0	0	0	0	0	0	0	0	0	0	0	0	0	0	0	0	0	
Average # of Memory Banks Accessed per Memory Operation per Warp=-nan

position of mrq chosen
0	0	0	0	0	0	0	0	0	0	0	0	0	0	0	0	

average position of mrq chosen = -nan
Memory Partition 0: 
Cache L2_bank_000:
MSHR contents

Cache L2_bank_001:
MSHR contents

In Dram Latency Queue (total = 0): 
DRAM[0]: 16 bks, busW=4 BL=8 CL=12, tRRD=2 tCCD=6, tRCD=12 tRAS=28 tRP=12 tRC=40
n_cmd=8793808 n_nop=8790476 n_act=227 n_pre=211 n_req=1547 n_rd=2346 n_write=548 bw_util=0.0006582
n_activity=28136 dram_eff=0.2057
bk0: 136a 8792979i bk1: 132a 8793050i bk2: 128a 8793107i bk3: 128a 8793135i bk4: 148a 8792659i bk5: 148a 8792836i bk6: 192a 8792560i bk7: 192a 8792609i bk8: 188a 8791870i bk9: 186a 8792115i bk10: 128a 8792919i bk11: 128a 8792934i bk12: 128a 8792952i bk13: 128a 8793046i bk14: 128a 8793286i bk15: 128a 8793271i 
dram_util_bins: 0 0 0 0 0 0 0 0 0 0
dram_eff_bins: 0 0 0 0 0 0 0 0 0 0
mrqq: max=5 avg=0.000421547
Memory Partition 1: 
Cache L2_bank_002:
MSHR contents

Cache L2_bank_003:
MSHR contents

In Dram Latency Queue (total = 0): 
DRAM[1]: 16 bks, busW=4 BL=8 CL=12, tRRD=2 tCCD=6, tRCD=12 tRAS=28 tRP=12 tRC=40
n_cmd=8793808 n_nop=8790474 n_act=225 n_pre=209 n_req=1546 n_rd=2350 n_write=550 bw_util=0.0006596
n_activity=28279 dram_eff=0.2051
bk0: 136a 8793054i bk1: 136a 8792909i bk2: 128a 8793158i bk3: 128a 8793100i bk4: 148a 8792610i bk5: 148a 8792745i bk6: 192a 8792638i bk7: 192a 8792580i bk8: 188a 8792008i bk9: 186a 8792199i bk10: 128a 8792969i bk11: 128a 8792970i bk12: 128a 8793031i bk13: 128a 8793023i bk14: 128a 8793306i bk15: 128a 8793294i 
dram_util_bins: 0 0 0 0 0 0 0 0 0 0
dram_eff_bins: 0 0 0 0 0 0 0 0 0 0
mrqq: max=5 avg=0.000386408
Memory Partition 2: 
Cache L2_bank_004:
MSHR contents

Cache L2_bank_005:
MSHR contents

In Dram Latency Queue (total = 0): 
DRAM[2]: 16 bks, busW=4 BL=8 CL=12, tRRD=2 tCCD=6, tRCD=12 tRAS=28 tRP=12 tRC=40
n_cmd=8793808 n_nop=8790507 n_act=209 n_pre=193 n_req=1545 n_rd=2348 n_write=551 bw_util=0.0006593
n_activity=27565 dram_eff=0.2103
bk0: 132a 8793046i bk1: 136a 8792910i bk2: 128a 8793164i bk3: 128a 8793050i bk4: 148a 8792762i bk5: 152a 8792757i bk6: 192a 8792659i bk7: 192a 8792708i bk8: 188a 8792050i bk9: 184a 8792217i bk10: 128a 8792933i bk11: 128a 8792963i bk12: 128a 8792999i bk13: 128a 8792958i bk14: 128a 8793335i bk15: 128a 8793319i 
dram_util_bins: 0 0 0 0 0 0 0 0 0 0
dram_eff_bins: 0 0 0 0 0 0 0 0 0 0
mrqq: max=4 avg=0.000385157
Memory Partition 3: 
Cache L2_bank_006:
MSHR contents

Cache L2_bank_007:
MSHR contents

In Dram Latency Queue (total = 0): 
DRAM[3]: 16 bks, busW=4 BL=8 CL=12, tRRD=2 tCCD=6, tRCD=12 tRAS=28 tRP=12 tRC=40
n_cmd=8793808 n_nop=8790474 n_act=215 n_pre=199 n_req=1556 n_rd=2348 n_write=572 bw_util=0.0006641
n_activity=27971 dram_eff=0.2088
bk0: 132a 8793016i bk1: 136a 8792869i bk2: 128a 8793166i bk3: 128a 8793147i bk4: 148a 8792666i bk5: 152a 8792723i bk6: 192a 8792774i bk7: 192a 8792618i bk8: 188a 8792039i bk9: 184a 8792167i bk10: 128a 8792919i bk11: 128a 8793000i bk12: 128a 8793061i bk13: 128a 8793003i bk14: 128a 8793310i bk15: 128a 8793242i 
dram_util_bins: 0 0 0 0 0 0 0 0 0 0
dram_eff_bins: 0 0 0 0 0 0 0 0 0 0
mrqq: max=9 avg=0.000432577
Memory Partition 4: 
Cache L2_bank_008:
MSHR contents

Cache L2_bank_009:
MSHR contents

In Dram Latency Queue (total = 0): 
DRAM[4]: 16 bks, busW=4 BL=8 CL=12, tRRD=2 tCCD=6, tRCD=12 tRAS=28 tRP=12 tRC=40
n_cmd=8793808 n_nop=8790494 n_act=221 n_pre=205 n_req=1549 n_rd=2344 n_write=544 bw_util=0.0006568
n_activity=27793 dram_eff=0.2078
bk0: 132a 8793072i bk1: 132a 8793054i bk2: 128a 8793118i bk3: 128a 8793048i bk4: 148a 8792637i bk5: 152a 8792612i bk6: 192a 8792728i bk7: 192a 8792620i bk8: 188a 8792005i bk9: 184a 8792011i bk10: 128a 8792887i bk11: 128a 8792978i bk12: 128a 8793040i bk13: 128a 8793033i bk14: 128a 8793300i bk15: 128a 8793241i 
dram_util_bins: 0 0 0 0 0 0 0 0 0 0
dram_eff_bins: 0 0 0 0 0 0 0 0 0 0
mrqq: max=8 avg=0.000480565
Memory Partition 5: 
Cache L2_bank_010:
MSHR contents

Cache L2_bank_011:
MSHR contents

In Dram Latency Queue (total = 0): 
DRAM[5]: 16 bks, busW=4 BL=8 CL=12, tRRD=2 tCCD=6, tRCD=12 tRAS=28 tRP=12 tRC=40
n_cmd=8793808 n_nop=8790506 n_act=207 n_pre=191 n_req=1542 n_rd=2344 n_write=560 bw_util=0.0006605
n_activity=27327 dram_eff=0.2125
bk0: 132a 8793028i bk1: 132a 8793071i bk2: 128a 8793124i bk3: 128a 8793148i bk4: 148a 8792860i bk5: 152a 8792618i bk6: 192a 8792674i bk7: 192a 8792558i bk8: 188a 8792174i bk9: 184a 8792164i bk10: 128a 8792887i bk11: 128a 8792933i bk12: 128a 8793012i bk13: 128a 8792997i bk14: 128a 8793319i bk15: 128a 8793266i 
dram_util_bins: 0 0 0 0 0 0 0 0 0 0
dram_eff_bins: 0 0 0 0 0 0 0 0 0 0
mrqq: max=4 avg=0.000408014

========= L2 cache stats =========
L2_cache_bank[0]: Access = 133510, Miss = 588, Miss_rate = 0.004, Pending_hits = 42, Reservation_fails = 430
L2_cache_bank[1]: Access = 139098, Miss = 585, Miss_rate = 0.004, Pending_hits = 34, Reservation_fails = 176
L2_cache_bank[2]: Access = 135372, Miss = 588, Miss_rate = 0.004, Pending_hits = 48, Reservation_fails = 436
L2_cache_bank[3]: Access = 139661, Miss = 587, Miss_rate = 0.004, Pending_hits = 38, Reservation_fails = 228
L2_cache_bank[4]: Access = 138231, Miss = 586, Miss_rate = 0.004, Pending_hits = 42, Reservation_fails = 119
L2_cache_bank[5]: Access = 134907, Miss = 588, Miss_rate = 0.004, Pending_hits = 33, Reservation_fails = 122
L2_cache_bank[6]: Access = 137696, Miss = 586, Miss_rate = 0.004, Pending_hits = 49, Reservation_fails = 338
L2_cache_bank[7]: Access = 138064, Miss = 588, Miss_rate = 0.004, Pending_hits = 34, Reservation_fails = 209
L2_cache_bank[8]: Access = 136059, Miss = 586, Miss_rate = 0.004, Pending_hits = 41, Reservation_fails = 370
L2_cache_bank[9]: Access = 136884, Miss = 586, Miss_rate = 0.004, Pending_hits = 35, Reservation_fails = 229
L2_cache_bank[10]: Access = 139631, Miss = 586, Miss_rate = 0.004, Pending_hits = 34, Reservation_fails = 185
L2_cache_bank[11]: Access = 138615, Miss = 586, Miss_rate = 0.004, Pending_hits = 28, Reservation_fails = 101
L2_total_cache_accesses = 1647728
L2_total_cache_misses = 7040
L2_total_cache_miss_rate = 0.0043
L2_total_cache_pending_hits = 458
L2_total_cache_reservation_fails = 2943
L2_total_cache_breakdown:
	L2_cache_stats_breakdown[GLOBAL_ACC_R][HIT] = 1634578
	L2_cache_stats_breakdown[GLOBAL_ACC_R][HIT_RESERVED] = 377
	L2_cache_stats_breakdown[GLOBAL_ACC_R][MISS] = 4933
	L2_cache_stats_breakdown[GLOBAL_ACC_R][RESERVATION_FAIL] = 1501
	L2_cache_stats_breakdown[CONST_ACC_R][HIT] = 63
	L2_cache_stats_breakdown[CONST_ACC_R][HIT_RESERVED] = 9
	L2_cache_stats_breakdown[CONST_ACC_R][MISS] = 3
	L2_cache_stats_breakdown[CONST_ACC_R][RESERVATION_FAIL] = 316
	L2_cache_stats_breakdown[GLOBAL_ACC_W][HIT] = 5278
	L2_cache_stats_breakdown[GLOBAL_ACC_W][HIT_RESERVED] = 33
	L2_cache_stats_breakdown[GLOBAL_ACC_W][MISS] = 2079
	L2_cache_stats_breakdown[GLOBAL_ACC_W][RESERVATION_FAIL] = 256
	L2_cache_stats_breakdown[INST_ACC_R][HIT] = 311
	L2_cache_stats_breakdown[INST_ACC_R][HIT_RESERVED] = 39
	L2_cache_stats_breakdown[INST_ACC_R][MISS] = 25
	L2_cache_stats_breakdown[INST_ACC_R][RESERVATION_FAIL] = 870
L2_cache_data_port_util = 0.082
L2_cache_fill_port_util = 0.000

icnt_total_pkts_mem_to_simt=8208930
icnt_total_pkts_simt_to_mem=1662043
LD_mem_lat_dist  0 0 0 0 0 0 0 0 0 0 0 0 0 0 0 0 0 0 0 0 0 0 0 0 0 0 0
ST_mem_lat_dist  0 0 0 0 0 0 0 0 0 0 0 0 0 0 0 0 0 0 0 0 0 0 0 0 0 0 0
----------------------------Interconnect-DETAILS--------------------------------
Class 0:
Packet latency average = 8.54329
	minimum = 6
	maximum = 54
Network latency average = 8.38221
	minimum = 6
	maximum = 51
Slowest packet = 3288890
Flit latency average = 6.64471
	minimum = 6
	maximum = 47
Slowest flit = 9851907
Fragmentation average = 0
	minimum = 0
	maximum = 0
Injected packet rate average = 0.00699835
	minimum = 0.00406176 (at node 11)
	maximum = 0.0104882 (at node 3)
Accepted packet rate average = 0.00699835
	minimum = 0.00406176 (at node 11)
	maximum = 0.0104882 (at node 3)
Injected flit rate average = 0.0201295
	minimum = 0.00472945 (at node 11)
	maximum = 0.0482682 (at node 26)
Accepted flit rate average= 0.0201295
	minimum = 0.00570316 (at node 20)
	maximum = 0.0506607 (at node 3)
Injected packet length average = 2.87633
Accepted packet length average = 2.87633
Total in-flight flits = 0 (0 measured)
====== Overall Traffic Statistics ======
====== Traffic class 0 ======
Packet latency average = 12.3286 (4 samples)
	minimum = 6 (4 samples)
	maximum = 90.75 (4 samples)
Network latency average = 11.3515 (4 samples)
	minimum = 6 (4 samples)
	maximum = 80.25 (4 samples)
Flit latency average = 10.3595 (4 samples)
	minimum = 6 (4 samples)
	maximum = 77.25 (4 samples)
Fragmentation average = 0 (4 samples)
	minimum = 0 (4 samples)
	maximum = 0 (4 samples)
Injected packet rate average = 0.0262049 (4 samples)
	minimum = 0.0212161 (4 samples)
	maximum = 0.0338882 (4 samples)
Accepted packet rate average = 0.0262049 (4 samples)
	minimum = 0.0212161 (4 samples)
	maximum = 0.0338882 (4 samples)
Injected flit rate average = 0.0781568 (4 samples)
	minimum = 0.0220659 (4 samples)
	maximum = 0.166891 (4 samples)
Accepted flit rate average = 0.0781568 (4 samples)
	minimum = 0.0281846 (4 samples)
	maximum = 0.12946 (4 samples)
Injected packet size average = 2.98252 (4 samples)
Accepted packet size average = 2.98252 (4 samples)
Hops average = 1 (4 samples)
----------------------------END-of-Interconnect-DETAILS-------------------------


gpgpu_simulation_time = 0 days, 0 hrs, 39 min, 53 sec (2393 sec)
gpgpu_simulation_rate = 32741 (inst/sec)
gpgpu_simulation_rate = 2783 (cycle/sec)
7 2 1 0 4 1 4 9 6 9 0 6 9 0 1 5 9 7 3 4 9 6 6 5 4 0 7 4
