

        *** GPGPU-Sim Simulator Version 3.2.2  [build 0] ***


GPGPU-Sim PTX: simulation mode 0 (can change with PTX_SIM_MODE_FUNC environment variable:
               1=functional simulation only, 0=detailed performance simulator)
GPGPU-Sim: Configuration options:

-network_mode                           1 # Interconnection network mode
-inter_config_file   config_fermi_islip.icnt # Interconnection network config file
-gpgpu_ptx_use_cuobjdump                    1 # Use cuobjdump to extract ptx and sass from binaries
-gpgpu_experimental_lib_support                    0 # Try to extract code from cuda libraries [Broken because of unknown cudaGetExportTable]
-gpgpu_ptx_convert_to_ptxplus                    0 # Convert SASS (native ISA) to ptxplus and run ptxplus
-gpgpu_ptx_force_max_capability                   20 # Force maximum compute capability
-gpgpu_ptx_inst_debug_to_file                    0 # Dump executed instructions' debug information to file
-gpgpu_ptx_inst_debug_file       inst_debug.txt # Executed instructions' debug output file
-gpgpu_ptx_inst_debug_thread_uid                    1 # Thread UID for executed instructions' debug output
-gpgpu_simd_model                       1 # 1 = post-dominator
-gpgpu_shader_core_pipeline              1536:32 # shader core pipeline config, i.e., {<nthread>:<warpsize>}
-gpgpu_tex_cache:l1  4:128:24,L:R:m:N:L,F:128:4,128:2 # per-shader L1 texture cache  (READ-ONLY) config  {<nsets>:<bsize>:<assoc>,<rep>:<wr>:<alloc>:<wr_alloc>,<mshr>:<N>:<merge>,<mq>:<rf>}
-gpgpu_const_cache:l1 64:64:2,L:R:f:N:L,A:2:32,4 # per-shader L1 constant memory cache  (READ-ONLY) config  {<nsets>:<bsize>:<assoc>,<rep>:<wr>:<alloc>:<wr_alloc>,<mshr>:<N>:<merge>,<mq>} 
-gpgpu_cache:il1     4:128:4,L:R:f:N:L,A:2:32,4 # shader L1 instruction cache config  {<nsets>:<bsize>:<assoc>,<rep>:<wr>:<alloc>:<wr_alloc>,<mshr>:<N>:<merge>,<mq>} 
-gpgpu_cache:dl1     32:128:4,L:L:m:N:H,A:32:8,8 # per-shader L1 data cache config  {<nsets>:<bsize>:<assoc>,<rep>:<wr>:<alloc>:<wr_alloc>,<mshr>:<N>:<merge>,<mq> | none}
-gpgpu_cache:dl1PrefL1                 none # per-shader L1 data cache config  {<nsets>:<bsize>:<assoc>,<rep>:<wr>:<alloc>:<wr_alloc>,<mshr>:<N>:<merge>,<mq> | none}
-gpgpu_cache:dl1PreShared                 none # per-shader L1 data cache config  {<nsets>:<bsize>:<assoc>,<rep>:<wr>:<alloc>:<wr_alloc>,<mshr>:<N>:<merge>,<mq> | none}
-gmem_skip_L1D                          0 # global memory access skip L1D cache (implements -Xptxas -dlcm=cg, default=no skip)
-gpgpu_perfect_mem                      0 # enable perfect memory mode (no cache miss)
-n_regfile_gating_group                    4 # group of lanes that should be read/written together)
-gpgpu_clock_gated_reg_file                    0 # enable clock gated reg file for power calculations
-gpgpu_clock_gated_lanes                    0 # enable clock gated lanes for power calculations
-gpgpu_shader_registers                32768 # Number of registers per shader core. Limits number of concurrent CTAs. (default 8192)
-gpgpu_shader_cta                       8 # Maximum number of concurrent CTAs in shader (default 8)
-gpgpu_num_cta_barriers                   16 # Maximum number of named barriers per CTA (default 16)
-gpgpu_n_clusters                      15 # number of processing clusters
-gpgpu_n_cores_per_cluster                    1 # number of simd cores per cluster
-gpgpu_n_cluster_ejection_buffer_size                    8 # number of packets in ejection buffer
-gpgpu_n_ldst_response_buffer_size                    2 # number of response packets in ld/st unit ejection buffer
-gpgpu_shmem_size                   16384 # Size of shared memory per shader core (default 16kB)
-gpgpu_shmem_size                   49152 # Size of shared memory per shader core (default 16kB)
-gpgpu_shmem_size_PrefL1                16384 # Size of shared memory per shader core (default 16kB)
-gpgpu_shmem_size_PrefShared                16384 # Size of shared memory per shader core (default 16kB)
-gpgpu_shmem_num_banks                   32 # Number of banks in the shared memory in each shader core (default 16)
-gpgpu_shmem_limited_broadcast                    0 # Limit shared memory to do one broadcast per cycle (default on)
-gpgpu_shmem_warp_parts                    1 # Number of portions a warp is divided into for shared memory bank conflict check 
-gpgpu_warpdistro_shader                   -1 # Specify which shader core to collect the warp size distribution from
-gpgpu_warp_issue_shader                    0 # Specify which shader core to collect the warp issue distribution from
-gpgpu_local_mem_map                    1 # Mapping from local memory space address to simulated GPU physical address space (default = enabled)
-gpgpu_num_reg_banks                   16 # Number of register banks (default = 8)
-gpgpu_reg_bank_use_warp_id                    0 # Use warp ID in mapping registers to banks (default = off)
-gpgpu_operand_collector_num_units_sp                    6 # number of collector units (default = 4)
-gpgpu_operand_collector_num_units_sfu                    8 # number of collector units (default = 4)
-gpgpu_operand_collector_num_units_mem                    2 # number of collector units (default = 2)
-gpgpu_operand_collector_num_units_gen                    0 # number of collector units (default = 0)
-gpgpu_operand_collector_num_in_ports_sp                    2 # number of collector unit in ports (default = 1)
-gpgpu_operand_collector_num_in_ports_sfu                    1 # number of collector unit in ports (default = 1)
-gpgpu_operand_collector_num_in_ports_mem                    1 # number of collector unit in ports (default = 1)
-gpgpu_operand_collector_num_in_ports_gen                    0 # number of collector unit in ports (default = 0)
-gpgpu_operand_collector_num_out_ports_sp                    2 # number of collector unit in ports (default = 1)
-gpgpu_operand_collector_num_out_ports_sfu                    1 # number of collector unit in ports (default = 1)
-gpgpu_operand_collector_num_out_ports_mem                    1 # number of collector unit in ports (default = 1)
-gpgpu_operand_collector_num_out_ports_gen                    0 # number of collector unit in ports (default = 0)
-gpgpu_coalesce_arch                   13 # Coalescing arch (default = 13, anything else is off for now)
-gpgpu_num_sched_per_core                    2 # Number of warp schedulers per core
-gpgpu_max_insn_issue_per_warp                    1 # Max number of instructions that can be issued per warp in one cycle by scheduler
-gpgpu_simt_core_sim_order                    1 # Select the simulation order of cores in a cluster (0=Fix, 1=Round-Robin)
-gpgpu_pipeline_widths        2,1,1,2,1,1,2 # Pipeline widths ID_OC_SP,ID_OC_SFU,ID_OC_MEM,OC_EX_SP,OC_EX_SFU,OC_EX_MEM,EX_WB
-gpgpu_num_sp_units                     2 # Number of SP units (default=1)
-gpgpu_num_sfu_units                    1 # Number of SF units (default=1)
-gpgpu_num_mem_units                    1 # Number if ldst units (default=1) WARNING: not hooked up to anything
-gpgpu_scheduler                      gto # Scheduler configuration: < lrr | gto | two_level_active > If two_level_active:<num_active_warps>:<inner_prioritization>:<outer_prioritization>For complete list of prioritization values see shader.h enum scheduler_prioritization_typeDefault: gto
-gpgpu_dram_scheduler                    1 # 0 = fifo, 1 = FR-FCFS (defaul)
-gpgpu_dram_partition_queues              8:8:8:8 # i2$:$2d:d2$:$2i
-l2_ideal                               0 # Use a ideal L2 cache that always hit
-gpgpu_cache:dl2     64:128:4,L:B:m:W:L,A:32:4,4:0,32 # unified banked L2 data cache config  {<nsets>:<bsize>:<assoc>,<rep>:<wr>:<alloc>:<wr_alloc>,<mshr>:<N>:<merge>,<mq>}
-gpgpu_cache:dl2_texture_only                    0 # L2 cache used for texture only
-gpgpu_n_mem                            6 # number of memory modules (e.g. memory controllers) in gpu
-gpgpu_n_sub_partition_per_mchannel                    2 # number of memory subpartition in each memory module
-gpgpu_n_mem_per_ctrlr                    2 # number of memory chips per memory controller
-gpgpu_memlatency_stat                   14 # track and display latency statistics 0x2 enables MC, 0x4 enables queue logs
-gpgpu_frfcfs_dram_sched_queue_size                   16 # 0 = unlimited (default); # entries per chip
-gpgpu_dram_return_queue_size                  116 # 0 = unlimited (default); # entries per chip
-gpgpu_dram_buswidth                    4 # default = 4 bytes (8 bytes per cycle at DDR)
-gpgpu_dram_burst_length                    8 # Burst length of each DRAM request (default = 4 data bus cycle)
-dram_data_command_freq_ratio                    4 # Frequency ratio between DRAM data bus and command bus (default = 2 times, i.e. DDR)
-gpgpu_dram_timing_opt nbk=16:CCD=2:RRD=6:RCD=12:RAS=28:RP=12:RC=40: CL=12:WL=4:CDLR=5:WR=12:nbkgrp=4:CCDL=3:RTPL=2 # DRAM timing parameters = {nbk:tCCD:tRRD:tRCD:tRAS:tRP:tRC:CL:WL:tCDLR:tWR:nbkgrp:tCCDL:tRTPL}
-rop_latency                          120 # ROP queue latency (default 85)
-dram_latency                         100 # DRAM latency (default 30)
-gpgpu_mem_addr_mapping dramid@8;00000000.00000000.00000000.00000000.0000RRRR.RRRRRRRR.BBBCCCCB.CCSSSSSS # mapping memory address to dram model {dramid@<start bit>;<memory address map>}
-gpgpu_mem_addr_test                    0 # run sweep test to check address mapping for aliased address
-gpgpu_mem_address_mask                    1 # 0 = old addressing mask, 1 = new addressing mask, 2 = new add. mask + flipped bank sel and chip sel bits
-gpuwattch_xml_file  gpuwattch_gtx480.xml # GPUWattch XML file
-power_simulation_enabled                    1 # Turn on power simulator (1=On, 0=Off)
-power_per_cycle_dump                    0 # Dump detailed power output each cycle
-power_trace_enabled                    0 # produce a file for the power trace (1=On, 0=Off)
-power_trace_zlevel                     6 # Compression level of the power trace output log (0=no comp, 9=highest)
-steady_power_levels_enabled                    0 # produce a file for the steady power levels (1=On, 0=Off)
-steady_state_definition                  8:4 # allowed deviation:number of samples
-gpgpu_max_cycle                        0 # terminates gpu simulation early (0 = no limit)
-gpgpu_max_insn                         0 # terminates gpu simulation early (0 = no limit)
-gpgpu_max_cta                          0 # terminates gpu simulation early (0 = no limit)
-gpgpu_runtime_stat                   500 # display runtime statistics such as dram utilization {<freq>:<flag>}
-liveness_message_freq                    1 # Minimum number of seconds between simulation liveness messages (0 = always print)
-gpgpu_flush_l1_cache                    0 # Flush L1 cache at the end of each kernel call
-gpgpu_flush_l2_cache                    0 # Flush L2 cache at the end of each kernel call
-gpgpu_deadlock_detect                    1 # Stop the simulation at deadlock (1=on (default), 0=off)
-gpgpu_ptx_instruction_classification                    0 # if enabled will classify ptx instruction types per kernel (Max 255 kernels now)
-gpgpu_ptx_sim_mode                     0 # Select between Performance (default) or Functional simulation (1)
-gpgpu_clock_domains 700.0:700.0:700.0:924.0 # Clock Domain Frequencies in MhZ {<Core Clock>:<ICNT Clock>:<L2 Clock>:<DRAM Clock>}
-gpgpu_max_concurrent_kernel                    8 # maximum kernels that can run concurrently on GPU
-gpgpu_cflog_interval                    0 # Interval between each snapshot in control flow logger
-visualizer_enabled                     0 # Turn on visualizer output (1=On, 0=Off)
-visualizer_outputfile                 NULL # Specifies the output log file for visualizer
-visualizer_zlevel                      6 # Compression level of the visualizer output log (0=no comp, 9=highest)
-trace_enabled                          0 # Turn on traces
-trace_components                    none # comma seperated list of traces to enable. Complete list found in trace_streams.tup. Default none
-trace_sampling_core                    0 # The core which is printed using CORE_DPRINTF. Default 0
-trace_sampling_memory_partition                   -1 # The memory partition which is printed using MEMPART_DPRINTF. Default -1 (i.e. all)
-enable_ptx_file_line_stats                    1 # Turn on PTX source line statistic profiling. (1 = On)
-ptx_line_stats_filename gpgpu_inst_stats.txt # Output file for PTX source line statistics.
-save_embedded_ptx                      0 # saves ptx files embedded in binary as <n>.ptx
-keep                                   0 # keep intermediate files created by GPGPU-Sim when interfacing with external programs
-gpgpu_ptx_save_converted_ptxplus                    0 # Saved converted ptxplus to a file
-ptx_opcode_latency_int         4,13,4,5,145 # Opcode latencies for integers <ADD,MAX,MUL,MAD,DIV>Default 1,1,19,25,145
-ptx_opcode_latency_fp          4,13,4,5,39 # Opcode latencies for single precision floating points <ADD,MAX,MUL,MAD,DIV>Default 1,1,1,1,30
-ptx_opcode_latency_dp         8,19,8,8,330 # Opcode latencies for double precision floating points <ADD,MAX,MUL,MAD,DIV>Default 8,8,8,8,335
-ptx_opcode_initiation_int            1,2,2,1,8 # Opcode initiation intervals for integers <ADD,MAX,MUL,MAD,DIV>Default 1,1,4,4,32
-ptx_opcode_initiation_fp            1,2,1,1,4 # Opcode initiation intervals for single precision floating points <ADD,MAX,MUL,MAD,DIV>Default 1,1,1,1,5
-ptx_opcode_initiation_dp         8,16,8,8,130 # Opcode initiation intervals for double precision floating points <ADD,MAX,MUL,MAD,DIV>Default 8,8,8,8,130
DRAM Timing Options:
nbk                                    16 # number of banks
CCD                                     2 # column to column delay
RRD                                     6 # minimal delay between activation of rows in different banks
RCD                                    12 # row to column delay
RAS                                    28 # time needed to activate row
RP                                     12 # time needed to precharge (deactivate) row
RC                                     40 # row cycle time
CDLR                                    5 # switching from write to read (changes tWTR)
WR                                     12 # last data-in to row precharge
CL                                     12 # CAS latency
WL                                      4 # Write latency
nbkgrp                                  4 # number of bank groups
CCDL                                    3 # column to column delay between accesses to different bank groups
RTPL                                    2 # read to precharge delay between accesses to different bank groups
Total number of memory sub partition = 12
addr_dec_mask[CHIP]  = 0000000000000000 	high:64 low:0
addr_dec_mask[BK]    = 000000000000e100 	high:16 low:8
addr_dec_mask[ROW]   = 000000000fff0000 	high:28 low:16
addr_dec_mask[COL]   = 0000000000001eff 	high:13 low:0
addr_dec_mask[BURST] = 000000000000003f 	high:6 low:0
sub_partition_id_mask = 0000000000000100
GPGPU-Sim uArch: clock freqs: 700000000.000000:700000000.000000:700000000.000000:924000000.000000
GPGPU-Sim uArch: clock periods: 0.00000000142857142857:0.00000000142857142857:0.00000000142857142857:0.00000000108225108225
*** Initializing Memory Statistics ***
GPGPU-Sim uArch: interconnect node map (shaderID+MemID to icntID)
GPGPU-Sim uArch: Memory nodes ID start from index: 15
GPGPU-Sim uArch:    0   1   2   3   4
GPGPU-Sim uArch:    5   6   7   8   9
GPGPU-Sim uArch:   10  11  12  13  14
GPGPU-Sim uArch:   15  16  17  18  19
GPGPU-Sim uArch:   20  21  22  23  24
GPGPU-Sim uArch:   25  26
GPGPU-Sim uArch: interconnect node reverse map (icntID to shaderID+MemID)
GPGPU-Sim uArch: Memory nodes start from ID: 15
GPGPU-Sim uArch:    0   1   2   3   4
GPGPU-Sim uArch:    5   6   7   8   9
GPGPU-Sim uArch:   10  11  12  13  14
GPGPU-Sim uArch:   15  16  17  18  19
GPGPU-Sim uArch:   20  21  22  23  24
GPGPU-Sim uArch:   25  26
328a61d178d3e8b45ddd3c2e89e11ce0  /home/scratch/adwait/applications/benchmarks/CUDA/SCP/gpgpu_ptx_sim__SCP
GPGPU-Sim uArch: performance model initialization complete.
GPGPU-Sim PTX: __cudaRegisterFatBinary, fat_cubin_handle = 1, filename=scalarProd.cu
self exe links to: /home/scratch/adwait/applications/benchmarks/CUDA/SCP/gpgpu_ptx_sim__SCP
Running md5sum using "md5sum /home/scratch/adwait/applications/benchmarks/CUDA/SCP/gpgpu_ptx_sim__SCP "
Running cuobjdump using "$CUDA_INSTALL_PATH/bin/cuobjdump -ptx -elf -sass /home/scratch/adwait/applications/benchmarks/CUDA/SCP/gpgpu_ptx_sim__SCP > _cuobjdump_complete_output_wMcNP8"
Parsing file _cuobjdump_complete_output_wMcNP8
######### cuobjdump parser ########
## Adding new section ELF
Adding arch: sm_20
Adding identifier: scalarProd.cu
## Adding new section PTX
Adding ptx filename: _cuobjdump_1.ptx
Adding arch: sm_20
Adding identifier: scalarProd.cu
Done parsing!!!
GPGPU-Sim PTX: __cudaRegisterFunction _Z13scalarProdGPUPfS_S_ii : hostFun 0x0x40483d, fat_cubin_handle = 1
GPGPU-Sim PTX: allocating shared region for "__cuda___cuda_local_var_42747_35_non_const_accumResult32" from 0x0 to 0x1000 (shared memory space)
GPGPU-Sim PTX: instruction assembly for function '_Z13scalarProdGPUPfS_S_ii'...   done.
GPGPU-Sim PTX: finding reconvergence points for '_Z13scalarProdGPUPfS_S_ii'...
GPGPU-Sim PTX: Finding dominators for '_Z13scalarProdGPUPfS_S_ii'...
GPGPU-Sim PTX: Finding immediate dominators for '_Z13scalarProdGPUPfS_S_ii'...
GPGPU-Sim PTX: Finding postdominators for '_Z13scalarProdGPUPfS_S_ii'...
GPGPU-Sim PTX: Finding immediate postdominators for '_Z13scalarProdGPUPfS_S_ii'...
GPGPU-Sim PTX: pre-decoding instructions for '_Z13scalarProdGPUPfS_S_ii'...
GPGPU-Sim PTX: reconvergence points for _Z13scalarProdGPUPfS_S_ii...
GPGPU-Sim PTX:  1 (potential) branch divergence @  PC=0x020 (_1.ptx:70) @%p1 bra $Lt_0_6146;
GPGPU-Sim PTX:    immediate post dominator      @  PC=0x308 (_1.ptx:187) exit;
GPGPU-Sim PTX:  2 (potential) branch divergence @  PC=0x068 (_1.ptx:81) @!%p2 bra $Lt_0_6914;
GPGPU-Sim PTX:    immediate post dominator      @  PC=0x1d8 (_1.ptx:137) mov.s32 %r25, 512;
GPGPU-Sim PTX:  3 (potential) branch divergence @  PC=0x0e0 (_1.ptx:99) @%p4 bra $Lt_0_12290;
GPGPU-Sim PTX:    immediate post dominator      @  PC=0x1b0 (_1.ptx:131) st.shared.f32 [%rd6+0], %f1;
GPGPU-Sim PTX:  4 (potential) branch divergence @  PC=0x198 (_1.ptx:125) @%p5 bra $Lt_0_8194;
GPGPU-Sim PTX:    immediate post dominator      @  PC=0x1a0 (_1.ptx:126) bra.uni $Lt_0_7682;
GPGPU-Sim PTX:  5 (potential) branch divergence @  PC=0x1a0 (_1.ptx:126) bra.uni $Lt_0_7682;
GPGPU-Sim PTX:    immediate post dominator      @  PC=0x1b0 (_1.ptx:131) st.shared.f32 [%rd6+0], %f1;
GPGPU-Sim PTX:  6 (potential) branch divergence @  PC=0x1d0 (_1.ptx:135) @%p6 bra $Lt_0_7426;
GPGPU-Sim PTX:    immediate post dominator      @  PC=0x1d8 (_1.ptx:137) mov.s32 %r25, 512;
GPGPU-Sim PTX:  7 (potential) branch divergence @  PC=0x1f0 (_1.ptx:143) @%p7 bra $Lt_0_9730;
GPGPU-Sim PTX:    immediate post dominator      @  PC=0x298 (_1.ptx:169) shr.s32 %r25, %r25, 1;
GPGPU-Sim PTX:  8 (potential) branch divergence @  PC=0x290 (_1.ptx:166) @%p8 bra $Lt_0_10242;
GPGPU-Sim PTX:    immediate post dominator      @  PC=0x298 (_1.ptx:169) shr.s32 %r25, %r25, 1;
GPGPU-Sim PTX:  9 (potential) branch divergence @  PC=0x2b0 (_1.ptx:172) @%p9 bra $Lt_0_9474;
GPGPU-Sim PTX:    immediate post dominator      @  PC=0x2b8 (_1.ptx:173) @!%p3 bra $Lt_0_11010;
GPGPU-Sim PTX: 10 (potential) branch divergence @  PC=0x2b8 (_1.ptx:173) @!%p3 bra $Lt_0_11010;
GPGPU-Sim PTX:    immediate post dominator      @  PC=0x2f0 (_1.ptx:182) add.u32 %r2, %r2, %r8;
GPGPU-Sim PTX: 11 (potential) branch divergence @  PC=0x300 (_1.ptx:184) @%p10 bra $Lt_0_6658;
GPGPU-Sim PTX:    immediate post dominator      @  PC=0x308 (_1.ptx:187) exit;
GPGPU-Sim PTX: ... end of reconvergence points for _Z13scalarProdGPUPfS_S_ii
GPGPU-Sim PTX: ... done pre-decoding instructions for '_Z13scalarProdGPUPfS_S_ii'.
GPGPU-Sim PTX: finished parsing EMBEDDED .ptx file _1.ptx
Adding _cuobjdump_1.ptx with cubin handle 1
GPGPU-Sim PTX: extracting embedded .ptx to temporary file "_ptx_rU1x5L"
Running: cat _ptx_rU1x5L | sed 's/.version 1.5/.version 1.4/' | sed 's/, texmode_independent//' | sed 's/\(\.extern \.const\[1\] .b8 \w\+\)\[\]/\1\[1\]/' | sed 's/const\[.\]/const\[0\]/g' > _ptx2_g5OFlp
GPGPU-Sim PTX: generating ptxinfo using "$CUDA_INSTALL_PATH/bin/ptxas --gpu-name=sm_20 -v _ptx2_g5OFlp --output-file  /dev/null 2> _ptx_rU1x5Linfo"
GPGPU-Sim PTX: Kernel '_Z13scalarProdGPUPfS_S_ii' : regs=18, lmem=0, smem=4096, cmem=68
GPGPU-Sim PTX: removing ptxinfo using "rm -f _ptx_rU1x5L _ptx2_g5OFlp _ptx_rU1x5Linfo"
GPGPU-Sim PTX: loading globals with explicit initializers... 
GPGPU-Sim PTX: finished loading globals (0 bytes total).
GPGPU-Sim PTX: loading constants with explicit initializers...  done.
Initializing data...
...allocating CPU memory.
...allocating GPU memory.
...generating input data in CPU mem.
...copying input data to GPU mem.
Data init done.
Executing GPU kernel...
GPGPU-Sim: synchronize waiting for inactive GPU simulation
GPGPU-Sim API: Stream Manager State
GPGPU-Sim: detected inactive GPU simulation thread

GPGPU-Sim PTX: cudaLaunch for 0x0x40483d (mode=performance simulation) on stream 0
GPGPU-Sim PTX: pushing kernel '_Z13scalarProdGPUPfS_S_ii' to stream 0, gridDim= (128,1,1) blockDim = (256,1,1) 
kernel '_Z13scalarProdGPUPfS_S_ii' transfer to GPU hardware scheduler
GPGPU-Sim uArch: Shader 1 bind to kernel 1 '_Z13scalarProdGPUPfS_S_ii'
GPGPU-Sim uArch: CTA/core = 6, limited by: threads regs
GPGPU-Sim uArch: core:  1, cta: 0 initialized @(1,0)
GPGPU-Sim uArch: Shader 2 bind to kernel 1 '_Z13scalarProdGPUPfS_S_ii'
GPGPU-Sim uArch: core:  2, cta: 0 initialized @(1,0)
GPGPU-Sim uArch: Shader 3 bind to kernel 1 '_Z13scalarProdGPUPfS_S_ii'
GPGPU-Sim uArch: core:  3, cta: 0 initialized @(1,0)
GPGPU-Sim uArch: Shader 4 bind to kernel 1 '_Z13scalarProdGPUPfS_S_ii'
GPGPU-Sim uArch: core:  4, cta: 0 initialized @(1,0)
GPGPU-Sim uArch: Shader 5 bind to kernel 1 '_Z13scalarProdGPUPfS_S_ii'
GPGPU-Sim uArch: core:  5, cta: 0 initialized @(1,0)
GPGPU-Sim uArch: Shader 6 bind to kernel 1 '_Z13scalarProdGPUPfS_S_ii'
GPGPU-Sim uArch: core:  6, cta: 0 initialized @(1,0)
GPGPU-Sim uArch: Shader 7 bind to kernel 1 '_Z13scalarProdGPUPfS_S_ii'
GPGPU-Sim uArch: core:  7, cta: 0 initialized @(1,0)
GPGPU-Sim uArch: Shader 8 bind to kernel 1 '_Z13scalarProdGPUPfS_S_ii'
GPGPU-Sim uArch: core:  8, cta: 0 initialized @(1,0)
GPGPU-Sim uArch: Shader 9 bind to kernel 1 '_Z13scalarProdGPUPfS_S_ii'
GPGPU-Sim uArch: core:  9, cta: 0 initialized @(1,0)
GPGPU-Sim uArch: Shader 10 bind to kernel 1 '_Z13scalarProdGPUPfS_S_ii'
GPGPU-Sim uArch: core: 10, cta: 0 initialized @(1,0)
GPGPU-Sim uArch: Shader 11 bind to kernel 1 '_Z13scalarProdGPUPfS_S_ii'
GPGPU-Sim uArch: core: 11, cta: 0 initialized @(1,0)
GPGPU-Sim uArch: Shader 12 bind to kernel 1 '_Z13scalarProdGPUPfS_S_ii'
GPGPU-Sim uArch: core: 12, cta: 0 initialized @(1,0)
GPGPU-Sim uArch: Shader 13 bind to kernel 1 '_Z13scalarProdGPUPfS_S_ii'
GPGPU-Sim uArch: core: 13, cta: 0 initialized @(1,0)
GPGPU-Sim uArch: Shader 14 bind to kernel 1 '_Z13scalarProdGPUPfS_S_ii'
GPGPU-Sim uArch: core: 14, cta: 0 initialized @(1,0)
GPGPU-Sim uArch: Shader 0 bind to kernel 1 '_Z13scalarProdGPUPfS_S_ii'
GPGPU-Sim uArch: core:  0, cta: 0 initialized @(1,0)
GPGPU-Sim uArch: core:  1, cta: 1 initialized @(2,0)
GPGPU-Sim uArch: core:  2, cta: 1 initialized @(2,0)
GPGPU-Sim uArch: core:  3, cta: 1 initialized @(2,0)
GPGPU-Sim uArch: core:  4, cta: 1 initialized @(2,0)
GPGPU-Sim uArch: core:  5, cta: 1 initialized @(2,0)
GPGPU-Sim uArch: core:  6, cta: 1 initialized @(2,0)
GPGPU-Sim uArch: core:  7, cta: 1 initialized @(2,0)
GPGPU-Sim uArch: core:  8, cta: 1 initialized @(2,0)
GPGPU-Sim uArch: core:  9, cta: 1 initialized @(2,0)
GPGPU-Sim uArch: core: 10, cta: 1 initialized @(2,0)
GPGPU-Sim uArch: core: 11, cta: 1 initialized @(2,0)
GPGPU-Sim uArch: core: 12, cta: 1 initialized @(2,0)
GPGPU-Sim uArch: core: 13, cta: 1 initialized @(2,0)
GPGPU-Sim uArch: core: 14, cta: 1 initialized @(2,0)
GPGPU-Sim uArch: core:  0, cta: 1 initialized @(2,0)
GPGPU-Sim uArch: core:  1, cta: 2 initialized @(3,0)
GPGPU-Sim uArch: core:  2, cta: 2 initialized @(3,0)
GPGPU-Sim uArch: core:  3, cta: 2 initialized @(3,0)
GPGPU-Sim uArch: core:  4, cta: 2 initialized @(3,0)
GPGPU-Sim uArch: core:  5, cta: 2 initialized @(3,0)
GPGPU-Sim uArch: core:  6, cta: 2 initialized @(3,0)
GPGPU-Sim uArch: core:  7, cta: 2 initialized @(3,0)
GPGPU-Sim uArch: core:  8, cta: 2 initialized @(3,0)
GPGPU-Sim uArch: core:  9, cta: 2 initialized @(3,0)
GPGPU-Sim uArch: core: 10, cta: 2 initialized @(3,0)
GPGPU-Sim uArch: core: 11, cta: 2 initialized @(3,0)
GPGPU-Sim uArch: core: 12, cta: 2 initialized @(3,0)
GPGPU-Sim uArch: core: 13, cta: 2 initialized @(3,0)
GPGPU-Sim uArch: core: 14, cta: 2 initialized @(3,0)
GPGPU-Sim uArch: core:  0, cta: 2 initialized @(3,0)
GPGPU-Sim uArch: core:  1, cta: 3 initialized @(4,0)
GPGPU-Sim uArch: core:  2, cta: 3 initialized @(4,0)
GPGPU-Sim uArch: core:  3, cta: 3 initialized @(4,0)
GPGPU-Sim uArch: core:  4, cta: 3 initialized @(4,0)
GPGPU-Sim uArch: core:  5, cta: 3 initialized @(4,0)
GPGPU-Sim uArch: core:  6, cta: 3 initialized @(4,0)
GPGPU-Sim uArch: core:  7, cta: 3 initialized @(4,0)
GPGPU-Sim uArch: core:  8, cta: 3 initialized @(4,0)
GPGPU-Sim uArch: core:  9, cta: 3 initialized @(4,0)
GPGPU-Sim uArch: core: 10, cta: 3 initialized @(4,0)
GPGPU-Sim uArch: core: 11, cta: 3 initialized @(4,0)
GPGPU-Sim uArch: core: 12, cta: 3 initialized @(4,0)
GPGPU-Sim uArch: core: 13, cta: 3 initialized @(4,0)
GPGPU-Sim uArch: core: 14, cta: 3 initialized @(4,0)
GPGPU-Sim uArch: core:  0, cta: 3 initialized @(4,0)
GPGPU-Sim uArch: core:  1, cta: 4 initialized @(5,0)
GPGPU-Sim uArch: core:  2, cta: 4 initialized @(5,0)
GPGPU-Sim uArch: core:  3, cta: 4 initialized @(5,0)
GPGPU-Sim uArch: core:  4, cta: 4 initialized @(5,0)
GPGPU-Sim uArch: core:  5, cta: 4 initialized @(5,0)
GPGPU-Sim uArch: core:  6, cta: 4 initialized @(5,0)
GPGPU-Sim uArch: core:  7, cta: 4 initialized @(5,0)
GPGPU-Sim uArch: core:  8, cta: 4 initialized @(5,0)
GPGPU-Sim uArch: core:  9, cta: 4 initialized @(5,0)
GPGPU-Sim uArch: core: 10, cta: 4 initialized @(5,0)
GPGPU-Sim uArch: core: 11, cta: 4 initialized @(5,0)
GPGPU-Sim uArch: core: 12, cta: 4 initialized @(5,0)
GPGPU-Sim uArch: core: 13, cta: 4 initialized @(5,0)
GPGPU-Sim uArch: core: 14, cta: 4 initialized @(5,0)
GPGPU-Sim uArch: core:  0, cta: 4 initialized @(5,0)
GPGPU-Sim uArch: core:  1, cta: 5 initialized @(6,0)
GPGPU-Sim uArch: core:  2, cta: 5 initialized @(6,0)
GPGPU-Sim uArch: core:  3, cta: 5 initialized @(6,0)
GPGPU-Sim uArch: core:  4, cta: 5 initialized @(6,0)
GPGPU-Sim uArch: core:  5, cta: 5 initialized @(6,0)
GPGPU-Sim uArch: core:  6, cta: 5 initialized @(6,0)
GPGPU-Sim uArch: core:  7, cta: 5 initialized @(6,0)
GPGPU-Sim uArch: core:  8, cta: 5 initialized @(6,0)
GPGPU-Sim uArch: core:  9, cta: 5 initialized @(6,0)
GPGPU-Sim uArch: core: 10, cta: 5 initialized @(6,0)
GPGPU-Sim uArch: core: 11, cta: 5 initialized @(6,0)
GPGPU-Sim uArch: core: 12, cta: 5 initialized @(6,0)
GPGPU-Sim uArch: core: 13, cta: 5 initialized @(6,0)
GPGPU-Sim uArch: core: 14, cta: 5 initialized @(6,0)
GPGPU-Sim uArch: core:  0, cta: 5 initialized @(6,0)
GPGPU-Sim uArch: cycles simulated: 500  inst.: 46080 (ipc=92.2) sim_rate=46080 (inst/sec) elapsed = 0:0:00:01 / Wed May  1 12:44:06 2019
GPGPU-Sim PTX: 100000 instructions simulated : ctaid=(16,0,0) tid=(159,0,0)
GPGPU-Sim PTX: 200000 instructions simulated : ctaid=(49,0,0) tid=(127,0,0)
GPGPU-Sim PTX: 300000 instructions simulated : ctaid=(82,0,0) tid=(63,0,0)
GPGPU-Sim PTX: 400000 instructions simulated : ctaid=(71,0,0) tid=(223,0,0)
GPGPU-Sim PTX: 500000 instructions simulated : ctaid=(39,0,0) tid=(223,0,0)
GPGPU-Sim PTX: 600000 instructions simulated : ctaid=(22,0,0) tid=(31,0,0)
GPGPU-Sim PTX: 700000 instructions simulated : ctaid=(76,0,0) tid=(159,0,0)
GPGPU-Sim PTX: 800000 instructions simulated : ctaid=(13,0,0) tid=(31,0,0)
GPGPU-Sim PTX: 900000 instructions simulated : ctaid=(12,0,0) tid=(127,0,0)
GPGPU-Sim uArch: cycles simulated: 2000  inst.: 888384 (ipc=444.2) sim_rate=444192 (inst/sec) elapsed = 0:0:00:02 / Wed May  1 12:44:08 2019
GPGPU-Sim PTX: 1000000 instructions simulated : ctaid=(51,0,0) tid=(127,0,0)
GPGPU-Sim uArch: cycles simulated: 2500  inst.: 934272 (ipc=373.7) sim_rate=311424 (inst/sec) elapsed = 0:0:00:03 / Wed May  1 12:44:09 2019
GPGPU-Sim PTX: 1100000 instructions simulated : ctaid=(11,0,0) tid=(95,0,0)
GPGPU-Sim uArch: cycles simulated: 3500  inst.: 1093504 (ipc=312.4) sim_rate=273376 (inst/sec) elapsed = 0:0:00:04 / Wed May  1 12:44:10 2019
GPGPU-Sim PTX: 1200000 instructions simulated : ctaid=(85,0,0) tid=(31,0,0)
GPGPU-Sim uArch: cycles simulated: 4000  inst.: 1138976 (ipc=284.7) sim_rate=227795 (inst/sec) elapsed = 0:0:00:05 / Wed May  1 12:44:11 2019
GPGPU-Sim PTX: 1300000 instructions simulated : ctaid=(19,0,0) tid=(31,0,0)
GPGPU-Sim uArch: cycles simulated: 5000  inst.: 1275424 (ipc=255.1) sim_rate=212570 (inst/sec) elapsed = 0:0:00:06 / Wed May  1 12:44:12 2019
GPGPU-Sim PTX: 1400000 instructions simulated : ctaid=(82,0,0) tid=(95,0,0)
GPGPU-Sim PTX: 1500000 instructions simulated : ctaid=(41,0,0) tid=(63,0,0)
GPGPU-Sim PTX: 1600000 instructions simulated : ctaid=(4,0,0) tid=(31,0,0)
GPGPU-Sim uArch: cycles simulated: 6000  inst.: 1525568 (ipc=254.3) sim_rate=217938 (inst/sec) elapsed = 0:0:00:07 / Wed May  1 12:44:13 2019
GPGPU-Sim PTX: 1700000 instructions simulated : ctaid=(17,0,0) tid=(31,0,0)
GPGPU-Sim PTX: 1800000 instructions simulated : ctaid=(46,0,0) tid=(95,0,0)
GPGPU-Sim PTX: 1900000 instructions simulated : ctaid=(8,0,0) tid=(223,0,0)
GPGPU-Sim uArch: cycles simulated: 7500  inst.: 1877632 (ipc=250.4) sim_rate=234704 (inst/sec) elapsed = 0:0:00:08 / Wed May  1 12:44:14 2019
GPGPU-Sim PTX: 2000000 instructions simulated : ctaid=(11,0,0) tid=(31,0,0)
GPGPU-Sim PTX: 2100000 instructions simulated : ctaid=(3,0,0) tid=(31,0,0)
GPGPU-Sim PTX: 2200000 instructions simulated : ctaid=(16,0,0) tid=(95,0,0)
GPGPU-Sim PTX: 2300000 instructions simulated : ctaid=(57,0,0) tid=(127,0,0)
GPGPU-Sim uArch: cycles simulated: 9000  inst.: 2236192 (ipc=248.5) sim_rate=248465 (inst/sec) elapsed = 0:0:00:09 / Wed May  1 12:44:15 2019
GPGPU-Sim PTX: 2400000 instructions simulated : ctaid=(52,0,0) tid=(31,0,0)
GPGPU-Sim PTX: 2500000 instructions simulated : ctaid=(34,0,0) tid=(159,0,0)
GPGPU-Sim PTX: 2600000 instructions simulated : ctaid=(17,0,0) tid=(31,0,0)
GPGPU-Sim PTX: 2700000 instructions simulated : ctaid=(50,0,0) tid=(31,0,0)
GPGPU-Sim uArch: cycles simulated: 10500  inst.: 2588160 (ipc=246.5) sim_rate=258816 (inst/sec) elapsed = 0:0:00:10 / Wed May  1 12:44:16 2019
GPGPU-Sim PTX: 2800000 instructions simulated : ctaid=(4,0,0) tid=(31,0,0)
GPGPU-Sim PTX: 2900000 instructions simulated : ctaid=(33,0,0) tid=(255,0,0)
GPGPU-Sim PTX: 3000000 instructions simulated : ctaid=(44,0,0) tid=(95,0,0)
GPGPU-Sim PTX: 3100000 instructions simulated : ctaid=(27,0,0) tid=(159,0,0)
GPGPU-Sim uArch: cycles simulated: 12000  inst.: 2994656 (ipc=249.6) sim_rate=272241 (inst/sec) elapsed = 0:0:00:11 / Wed May  1 12:44:17 2019
GPGPU-Sim PTX: 3200000 instructions simulated : ctaid=(40,0,0) tid=(255,0,0)
GPGPU-Sim uArch: cycles simulated: 12500  inst.: 3104256 (ipc=248.3) sim_rate=258688 (inst/sec) elapsed = 0:0:00:12 / Wed May  1 12:44:18 2019
GPGPU-Sim PTX: 3300000 instructions simulated : ctaid=(89,0,0) tid=(95,0,0)
GPGPU-Sim PTX: 3400000 instructions simulated : ctaid=(41,0,0) tid=(31,0,0)
GPGPU-Sim uArch: cycles simulated: 13500  inst.: 3321760 (ipc=246.1) sim_rate=255520 (inst/sec) elapsed = 0:0:00:13 / Wed May  1 12:44:19 2019
GPGPU-Sim PTX: 3500000 instructions simulated : ctaid=(60,0,0) tid=(95,0,0)
GPGPU-Sim PTX: 3600000 instructions simulated : ctaid=(36,0,0) tid=(127,0,0)
GPGPU-Sim uArch: cycles simulated: 14000  inst.: 3447680 (ipc=246.3) sim_rate=246262 (inst/sec) elapsed = 0:0:00:14 / Wed May  1 12:44:20 2019
GPGPU-Sim PTX: 3700000 instructions simulated : ctaid=(60,0,0) tid=(191,0,0)
GPGPU-Sim uArch: cycles simulated: 14500  inst.: 3572064 (ipc=246.3) sim_rate=238137 (inst/sec) elapsed = 0:0:00:15 / Wed May  1 12:44:21 2019
GPGPU-Sim PTX: 3800000 instructions simulated : ctaid=(53,0,0) tid=(63,0,0)
GPGPU-Sim PTX: 3900000 instructions simulated : ctaid=(39,0,0) tid=(63,0,0)
GPGPU-Sim PTX: 4000000 instructions simulated : ctaid=(55,0,0) tid=(255,0,0)
GPGPU-Sim PTX: 4100000 instructions simulated : ctaid=(4,0,0) tid=(127,0,0)
GPGPU-Sim PTX: 4200000 instructions simulated : ctaid=(8,0,0) tid=(127,0,0)
GPGPU-Sim PTX: 4300000 instructions simulated : ctaid=(25,0,0) tid=(239,0,0)
GPGPU-Sim uArch: cycles simulated: 16000  inst.: 4130328 (ipc=258.1) sim_rate=258145 (inst/sec) elapsed = 0:0:00:16 / Wed May  1 12:44:22 2019
GPGPU-Sim PTX: 4400000 instructions simulated : ctaid=(71,0,0) tid=(23,0,0)
GPGPU-Sim PTX: 4500000 instructions simulated : ctaid=(74,0,0) tid=(55,0,0)
GPGPU-Sim uArch: cycles simulated: 16500  inst.: 4351830 (ipc=263.7) sim_rate=255990 (inst/sec) elapsed = 0:0:00:17 / Wed May  1 12:44:23 2019
GPGPU-Sim PTX: 4600000 instructions simulated : ctaid=(11,0,0) tid=(11,0,0)
GPGPU-Sim PTX: 4700000 instructions simulated : ctaid=(25,0,0) tid=(211,0,0)
GPGPU-Sim PTX: 4800000 instructions simulated : ctaid=(62,0,0) tid=(99,0,0)
GPGPU-Sim PTX: 4900000 instructions simulated : ctaid=(82,0,0) tid=(19,0,0)
GPGPU-Sim PTX: 5000000 instructions simulated : ctaid=(11,0,0) tid=(77,0,0)
GPGPU-Sim PTX: 5100000 instructions simulated : ctaid=(10,0,0) tid=(243,0,0)
GPGPU-Sim PTX: 5200000 instructions simulated : ctaid=(66,0,0) tid=(144,0,0)
GPGPU-Sim PTX: 5300000 instructions simulated : ctaid=(43,0,0) tid=(42,0,0)
GPGPU-Sim uArch: cycles simulated: 18000  inst.: 5082411 (ipc=282.4) sim_rate=282356 (inst/sec) elapsed = 0:0:00:18 / Wed May  1 12:44:24 2019
GPGPU-Sim PTX: 5400000 instructions simulated : ctaid=(29,0,0) tid=(15,0,0)
GPGPU-Sim PTX: 5500000 instructions simulated : ctaid=(82,0,0) tid=(219,0,0)
GPGPU-Sim PTX: 5600000 instructions simulated : ctaid=(52,0,0) tid=(52,0,0)
GPGPU-Sim PTX: 5700000 instructions simulated : ctaid=(63,0,0) tid=(33,0,0)
GPGPU-Sim PTX: 5800000 instructions simulated : ctaid=(22,0,0) tid=(11,0,0)
GPGPU-Sim uArch: cycles simulated: 19000  inst.: 5604694 (ipc=295.0) sim_rate=294983 (inst/sec) elapsed = 0:0:00:19 / Wed May  1 12:44:25 2019
GPGPU-Sim PTX: 5900000 instructions simulated : ctaid=(5,0,0) tid=(160,0,0)
GPGPU-Sim PTX: 6000000 instructions simulated : ctaid=(61,0,0) tid=(121,0,0)
GPGPU-Sim uArch: cycles simulated: 19500  inst.: 5810449 (ipc=298.0) sim_rate=290522 (inst/sec) elapsed = 0:0:00:20 / Wed May  1 12:44:26 2019
GPGPU-Sim PTX: 6100000 instructions simulated : ctaid=(77,0,0) tid=(195,0,0)
GPGPU-Sim PTX: 6200000 instructions simulated : ctaid=(63,0,0) tid=(216,0,0)
GPGPU-Sim PTX: 6300000 instructions simulated : ctaid=(83,0,0) tid=(159,0,0)
GPGPU-Sim PTX: 6400000 instructions simulated : ctaid=(6,0,0) tid=(63,0,0)
GPGPU-Sim uArch: cycles simulated: 20500  inst.: 6174918 (ipc=301.2) sim_rate=294043 (inst/sec) elapsed = 0:0:00:21 / Wed May  1 12:44:27 2019
GPGPU-Sim PTX: 6500000 instructions simulated : ctaid=(29,0,0) tid=(128,0,0)
GPGPU-Sim PTX: 6600000 instructions simulated : ctaid=(82,0,0) tid=(117,0,0)
GPGPU-Sim uArch: cycles simulated: 21000  inst.: 6368704 (ipc=303.3) sim_rate=289486 (inst/sec) elapsed = 0:0:00:22 / Wed May  1 12:44:28 2019
GPGPU-Sim PTX: 6700000 instructions simulated : ctaid=(19,0,0) tid=(115,0,0)
GPGPU-Sim PTX: 6800000 instructions simulated : ctaid=(4,0,0) tid=(9,0,0)
GPGPU-Sim uArch: cycles simulated: 21500  inst.: 6536175 (ipc=304.0) sim_rate=284181 (inst/sec) elapsed = 0:0:00:23 / Wed May  1 12:44:29 2019
GPGPU-Sim PTX: 6900000 instructions simulated : ctaid=(7,0,0) tid=(107,0,0)
GPGPU-Sim PTX: 7000000 instructions simulated : ctaid=(47,0,0) tid=(105,0,0)
GPGPU-Sim PTX: 7100000 instructions simulated : ctaid=(36,0,0) tid=(183,0,0)
GPGPU-Sim PTX: 7200000 instructions simulated : ctaid=(16,0,0) tid=(239,0,0)
GPGPU-Sim uArch: cycles simulated: 22500  inst.: 6885594 (ipc=306.0) sim_rate=286899 (inst/sec) elapsed = 0:0:00:24 / Wed May  1 12:44:30 2019
GPGPU-Sim PTX: 7300000 instructions simulated : ctaid=(30,0,0) tid=(143,0,0)
GPGPU-Sim PTX: 7400000 instructions simulated : ctaid=(35,0,0) tid=(11,0,0)
GPGPU-Sim PTX: 7500000 instructions simulated : ctaid=(8,0,0) tid=(133,0,0)
GPGPU-Sim PTX: 7600000 instructions simulated : ctaid=(32,0,0) tid=(3,0,0)
GPGPU-Sim PTX: 7700000 instructions simulated : ctaid=(39,0,0) tid=(73,0,0)
GPGPU-Sim PTX: 7800000 instructions simulated : ctaid=(34,0,0) tid=(185,0,0)
GPGPU-Sim uArch: cycles simulated: 24000  inst.: 7450291 (ipc=310.4) sim_rate=298011 (inst/sec) elapsed = 0:0:00:25 / Wed May  1 12:44:31 2019
GPGPU-Sim PTX: 7900000 instructions simulated : ctaid=(40,0,0) tid=(236,0,0)
GPGPU-Sim PTX: 8000000 instructions simulated : ctaid=(43,0,0) tid=(187,0,0)
GPGPU-Sim PTX: 8100000 instructions simulated : ctaid=(13,0,0) tid=(143,0,0)
GPGPU-Sim uArch: cycles simulated: 25000  inst.: 7797007 (ipc=311.9) sim_rate=299884 (inst/sec) elapsed = 0:0:00:26 / Wed May  1 12:44:32 2019
GPGPU-Sim PTX: 8200000 instructions simulated : ctaid=(31,0,0) tid=(37,0,0)
GPGPU-Sim PTX: 8300000 instructions simulated : ctaid=(11,0,0) tid=(76,0,0)
GPGPU-Sim PTX: 8400000 instructions simulated : ctaid=(80,0,0) tid=(119,0,0)
GPGPU-Sim PTX: 8500000 instructions simulated : ctaid=(52,0,0) tid=(70,0,0)
GPGPU-Sim PTX: 8600000 instructions simulated : ctaid=(30,0,0) tid=(1,0,0)
GPGPU-Sim uArch: cycles simulated: 26500  inst.: 8289628 (ipc=312.8) sim_rate=307023 (inst/sec) elapsed = 0:0:00:27 / Wed May  1 12:44:33 2019
GPGPU-Sim PTX: 8700000 instructions simulated : ctaid=(23,0,0) tid=(76,0,0)
GPGPU-Sim PTX: 8800000 instructions simulated : ctaid=(5,0,0) tid=(245,0,0)
GPGPU-Sim uArch: cycles simulated: 27000  inst.: 8427178 (ipc=312.1) sim_rate=300970 (inst/sec) elapsed = 0:0:00:28 / Wed May  1 12:44:34 2019
GPGPU-Sim PTX: 8900000 instructions simulated : ctaid=(20,0,0) tid=(209,0,0)
GPGPU-Sim PTX: 9000000 instructions simulated : ctaid=(52,0,0) tid=(51,0,0)
GPGPU-Sim PTX: 9100000 instructions simulated : ctaid=(48,0,0) tid=(183,0,0)
GPGPU-Sim uArch: cycles simulated: 28000  inst.: 8752044 (ipc=312.6) sim_rate=301794 (inst/sec) elapsed = 0:0:00:29 / Wed May  1 12:44:35 2019
GPGPU-Sim PTX: 9200000 instructions simulated : ctaid=(49,0,0) tid=(1,0,0)
GPGPU-Sim PTX: 9300000 instructions simulated : ctaid=(27,0,0) tid=(177,0,0)
GPGPU-Sim uArch: cycles simulated: 28500  inst.: 8943552 (ipc=313.8) sim_rate=298118 (inst/sec) elapsed = 0:0:00:30 / Wed May  1 12:44:36 2019
GPGPU-Sim PTX: 9400000 instructions simulated : ctaid=(6,0,0) tid=(51,0,0)
GPGPU-Sim PTX: 9500000 instructions simulated : ctaid=(4,0,0) tid=(52,0,0)
GPGPU-Sim PTX: 9600000 instructions simulated : ctaid=(60,0,0) tid=(94,0,0)
GPGPU-Sim uArch: cycles simulated: 29000  inst.: 9174814 (ipc=316.4) sim_rate=295961 (inst/sec) elapsed = 0:0:00:31 / Wed May  1 12:44:37 2019
GPGPU-Sim PTX: 9700000 instructions simulated : ctaid=(17,0,0) tid=(41,0,0)
GPGPU-Sim PTX: 9800000 instructions simulated : ctaid=(54,0,0) tid=(229,0,0)
GPGPU-Sim PTX: 9900000 instructions simulated : ctaid=(3,0,0) tid=(52,0,0)
GPGPU-Sim PTX: 10000000 instructions simulated : ctaid=(56,0,0) tid=(63,0,0)
GPGPU-Sim uArch: Shader 3 finished CTA #0 (29748,0), 5 CTAs running
GPGPU-Sim uArch: core:  3, cta: 0 initialized @(29749,0)
GPGPU-Sim PTX: 10100000 instructions simulated : ctaid=(56,0,0) tid=(96,0,0)
GPGPU-Sim uArch: cycles simulated: 30000  inst.: 9716094 (ipc=323.9) sim_rate=303627 (inst/sec) elapsed = 0:0:00:32 / Wed May  1 12:44:38 2019
GPGPU-Sim PTX: 10200000 instructions simulated : ctaid=(39,0,0) tid=(95,0,0)
GPGPU-Sim PTX: 10300000 instructions simulated : ctaid=(44,0,0) tid=(33,0,0)
GPGPU-Sim uArch: Shader 5 finished CTA #0 (30223,0), 5 CTAs running
GPGPU-Sim uArch: core:  5, cta: 0 initialized @(30224,0)
GPGPU-Sim PTX: 10400000 instructions simulated : ctaid=(1,0,0) tid=(92,0,0)
GPGPU-Sim uArch: Shader 1 finished CTA #0 (30400,0), 5 CTAs running
GPGPU-Sim uArch: core:  1, cta: 0 initialized @(30401,0)
GPGPU-Sim PTX: 10500000 instructions simulated : ctaid=(26,0,0) tid=(3,0,0)
GPGPU-Sim uArch: Shader 10 finished CTA #0 (30595,0), 5 CTAs running
GPGPU-Sim uArch: core: 10, cta: 0 initialized @(30596,0)
GPGPU-Sim PTX: 10600000 instructions simulated : ctaid=(59,0,0) tid=(105,0,0)
GPGPU-Sim PTX: 10700000 instructions simulated : ctaid=(54,0,0) tid=(107,0,0)
GPGPU-Sim uArch: cycles simulated: 31000  inst.: 10297544 (ipc=332.2) sim_rate=312046 (inst/sec) elapsed = 0:0:00:33 / Wed May  1 12:44:39 2019
GPGPU-Sim PTX: 10800000 instructions simulated : ctaid=(36,0,0) tid=(225,0,0)
GPGPU-Sim uArch: Shader 11 finished CTA #0 (31019,0), 5 CTAs running
GPGPU-Sim uArch: core: 11, cta: 0 initialized @(31020,0)
GPGPU-Sim uArch: Shader 8 finished CTA #0 (31158,0), 5 CTAs running
GPGPU-Sim uArch: core:  8, cta: 0 initialized @(31159,0)
GPGPU-Sim PTX: 10900000 instructions simulated : ctaid=(64,0,0) tid=(186,0,0)
GPGPU-Sim uArch: Shader 12 finished CTA #0 (31279,0), 5 CTAs running
GPGPU-Sim uArch: core: 12, cta: 0 initialized @(31280,0)
GPGPU-Sim PTX: 11000000 instructions simulated : ctaid=(23,0,0) tid=(6,0,0)
GPGPU-Sim PTX: 11100000 instructions simulated : ctaid=(60,0,0) tid=(241,0,0)
GPGPU-Sim uArch: Shader 9 finished CTA #0 (31516,0), 5 CTAs running
GPGPU-Sim uArch: core:  9, cta: 0 initialized @(31517,0)
GPGPU-Sim uArch: Shader 7 finished CTA #0 (31574,0), 5 CTAs running
GPGPU-Sim uArch: core:  7, cta: 0 initialized @(31575,0)
GPGPU-Sim PTX: 11200000 instructions simulated : ctaid=(38,0,0) tid=(87,0,0)
GPGPU-Sim PTX: 11300000 instructions simulated : ctaid=(36,0,0) tid=(236,0,0)
GPGPU-Sim uArch: Shader 3 finished CTA #1 (31847,0), 5 CTAs running
GPGPU-Sim uArch: core:  3, cta: 1 initialized @(31848,0)
GPGPU-Sim PTX: 11400000 instructions simulated : ctaid=(53,0,0) tid=(134,0,0)
GPGPU-Sim uArch: Shader 0 finished CTA #0 (31999,0), 5 CTAs running
GPGPU-Sim uArch: core:  0, cta: 0 initialized @(32000,0)
GPGPU-Sim uArch: cycles simulated: 32000  inst.: 10916169 (ipc=341.1) sim_rate=321063 (inst/sec) elapsed = 0:0:00:34 / Wed May  1 12:44:40 2019
GPGPU-Sim PTX: 11500000 instructions simulated : ctaid=(54,0,0) tid=(162,0,0)
GPGPU-Sim uArch: Shader 13 finished CTA #0 (32137,0), 5 CTAs running
GPGPU-Sim uArch: core: 13, cta: 0 initialized @(32138,0)
GPGPU-Sim uArch: Shader 2 finished CTA #0 (32201,0), 5 CTAs running
GPGPU-Sim uArch: core:  2, cta: 0 initialized @(32202,0)
GPGPU-Sim uArch: Shader 4 finished CTA #0 (32203,0), 5 CTAs running
GPGPU-Sim uArch: core:  4, cta: 0 initialized @(32204,0)
GPGPU-Sim uArch: Shader 14 finished CTA #0 (32213,0), 5 CTAs running
GPGPU-Sim uArch: core: 14, cta: 0 initialized @(32214,0)
GPGPU-Sim PTX: 11600000 instructions simulated : ctaid=(21,0,0) tid=(23,0,0)
GPGPU-Sim PTX: 11700000 instructions simulated : ctaid=(29,0,0) tid=(146,0,0)
GPGPU-Sim uArch: Shader 6 finished CTA #0 (32529,0), 5 CTAs running
GPGPU-Sim uArch: core:  6, cta: 0 initialized @(32530,0)
GPGPU-Sim PTX: 11800000 instructions simulated : ctaid=(78,0,0) tid=(55,0,0)
GPGPU-Sim PTX: 11900000 instructions simulated : ctaid=(52,0,0) tid=(74,0,0)
GPGPU-Sim uArch: Shader 12 finished CTA #1 (32840,0), 5 CTAs running
GPGPU-Sim uArch: core: 12, cta: 1 initialized @(32841,0)
GPGPU-Sim PTX: 12000000 instructions simulated : ctaid=(16,0,0) tid=(187,0,0)
GPGPU-Sim uArch: cycles simulated: 33000  inst.: 11481470 (ipc=347.9) sim_rate=328042 (inst/sec) elapsed = 0:0:00:35 / Wed May  1 12:44:41 2019
GPGPU-Sim uArch: Shader 10 finished CTA #1 (33015,0), 5 CTAs running
GPGPU-Sim uArch: core: 10, cta: 1 initialized @(33016,0)
GPGPU-Sim PTX: 12100000 instructions simulated : ctaid=(77,0,0) tid=(253,0,0)
GPGPU-Sim PTX: 12200000 instructions simulated : ctaid=(55,0,0) tid=(130,0,0)
GPGPU-Sim PTX: 12300000 instructions simulated : ctaid=(55,0,0) tid=(21,0,0)
GPGPU-Sim uArch: Shader 13 finished CTA #1 (33563,0), 5 CTAs running
GPGPU-Sim uArch: core: 13, cta: 1 initialized @(33564,0)
GPGPU-Sim uArch: Shader 11 finished CTA #1 (33567,0), 5 CTAs running
GPGPU-Sim uArch: core: 11, cta: 1 initialized @(33568,0)
GPGPU-Sim uArch: Shader 9 finished CTA #1 (33587,0), 5 CTAs running
GPGPU-Sim uArch: core:  9, cta: 1 initialized @(33588,0)
GPGPU-Sim PTX: 12400000 instructions simulated : ctaid=(15,0,0) tid=(53,0,0)
GPGPU-Sim uArch: Shader 8 finished CTA #1 (33819,0), 5 CTAs running
GPGPU-Sim uArch: core:  8, cta: 1 initialized @(33820,0)
GPGPU-Sim uArch: Shader 4 finished CTA #1 (33860,0), 5 CTAs running
GPGPU-Sim uArch: core:  4, cta: 1 initialized @(33861,0)
GPGPU-Sim uArch: Shader 5 finished CTA #1 (33884,0), 5 CTAs running
GPGPU-Sim uArch: core:  5, cta: 1 initialized @(33885,0)
GPGPU-Sim uArch: cycles simulated: 34000  inst.: 11902123 (ipc=350.1) sim_rate=330614 (inst/sec) elapsed = 0:0:00:36 / Wed May  1 12:44:42 2019
GPGPU-Sim PTX: 12500000 instructions simulated : ctaid=(66,0,0) tid=(8,0,0)
GPGPU-Sim uArch: Shader 14 finished CTA #1 (34264,0), 5 CTAs running
GPGPU-Sim uArch: core: 14, cta: 1 initialized @(34265,0)
GPGPU-Sim PTX: 12600000 instructions simulated : ctaid=(82,0,0) tid=(224,0,0)
GPGPU-Sim PTX: 12700000 instructions simulated : ctaid=(46,0,0) tid=(105,0,0)
GPGPU-Sim uArch: cycles simulated: 34500  inst.: 12121271 (ipc=351.3) sim_rate=327601 (inst/sec) elapsed = 0:0:00:37 / Wed May  1 12:44:43 2019
GPGPU-Sim uArch: Shader 1 finished CTA #1 (34509,0), 5 CTAs running
GPGPU-Sim uArch: core:  1, cta: 1 initialized @(34510,0)
GPGPU-Sim PTX: 12800000 instructions simulated : ctaid=(63,0,0) tid=(91,0,0)
GPGPU-Sim uArch: Shader 0 finished CTA #1 (34758,0), 5 CTAs running
GPGPU-Sim uArch: core:  0, cta: 1 initialized @(34759,0)
GPGPU-Sim uArch: Shader 6 finished CTA #1 (34804,0), 5 CTAs running
GPGPU-Sim uArch: core:  6, cta: 1 initialized @(34805,0)
GPGPU-Sim PTX: 12900000 instructions simulated : ctaid=(62,0,0) tid=(7,0,0)
GPGPU-Sim uArch: Shader 7 finished CTA #1 (34942,0), 5 CTAs running
GPGPU-Sim uArch: core:  7, cta: 1 initialized @(34943,0)
GPGPU-Sim uArch: cycles simulated: 35000  inst.: 12330507 (ipc=352.3) sim_rate=324487 (inst/sec) elapsed = 0:0:00:38 / Wed May  1 12:44:44 2019
GPGPU-Sim PTX: 13000000 instructions simulated : ctaid=(30,0,0) tid=(213,0,0)
GPGPU-Sim PTX: 13100000 instructions simulated : ctaid=(69,0,0) tid=(220,0,0)
GPGPU-Sim uArch: cycles simulated: 35500  inst.: 12547994 (ipc=353.5) sim_rate=321743 (inst/sec) elapsed = 0:0:00:39 / Wed May  1 12:44:45 2019
GPGPU-Sim PTX: 13200000 instructions simulated : ctaid=(114,0,0) tid=(60,0,0)
GPGPU-Sim PTX: 13300000 instructions simulated : ctaid=(50,0,0) tid=(3,0,0)
GPGPU-Sim PTX: 13400000 instructions simulated : ctaid=(68,0,0) tid=(174,0,0)
GPGPU-Sim PTX: 13500000 instructions simulated : ctaid=(92,0,0) tid=(88,0,0)
GPGPU-Sim uArch: Shader 2 finished CTA #1 (36284,0), 5 CTAs running
GPGPU-Sim uArch: core:  2, cta: 1 initialized @(36285,0)
GPGPU-Sim PTX: 13600000 instructions simulated : ctaid=(66,0,0) tid=(49,0,0)
GPGPU-Sim uArch: cycles simulated: 36500  inst.: 12981499 (ipc=355.7) sim_rate=324537 (inst/sec) elapsed = 0:0:00:40 / Wed May  1 12:44:46 2019
GPGPU-Sim PTX: 13700000 instructions simulated : ctaid=(70,0,0) tid=(93,0,0)
GPGPU-Sim uArch: Shader 5 finished CTA #2 (36885,0), 5 CTAs running
GPGPU-Sim PTX: 13800000 instructions simulated : ctaid=(50,0,0) tid=(224,0,0)
GPGPU-Sim uArch: core:  5, cta: 2 initialized @(36886,0)
GPGPU-Sim PTX: 13900000 instructions simulated : ctaid=(94,0,0) tid=(131,0,0)
GPGPU-Sim PTX: 14000000 instructions simulated : ctaid=(39,0,0) tid=(167,0,0)
GPGPU-Sim PTX: 14100000 instructions simulated : ctaid=(59,0,0) tid=(193,0,0)
GPGPU-Sim uArch: cycles simulated: 37500  inst.: 13485334 (ipc=359.6) sim_rate=328910 (inst/sec) elapsed = 0:0:00:41 / Wed May  1 12:44:47 2019
GPGPU-Sim PTX: 14200000 instructions simulated : ctaid=(42,0,0) tid=(17,0,0)
GPGPU-Sim PTX: 14300000 instructions simulated : ctaid=(39,0,0) tid=(2,0,0)
GPGPU-Sim uArch: Shader 8 finished CTA #2 (37850,0), 5 CTAs running
GPGPU-Sim uArch: core:  8, cta: 2 initialized @(37851,0)
GPGPU-Sim PTX: 14400000 instructions simulated : ctaid=(58,0,0) tid=(104,0,0)
GPGPU-Sim uArch: Shader 3 finished CTA #2 (38093,0), 5 CTAs running
GPGPU-Sim uArch: core:  3, cta: 2 initialized @(38094,0)
GPGPU-Sim PTX: 14500000 instructions simulated : ctaid=(95,0,0) tid=(135,0,0)
GPGPU-Sim PTX: 14600000 instructions simulated : ctaid=(62,0,0) tid=(31,0,0)
GPGPU-Sim uArch: cycles simulated: 38500  inst.: 13973494 (ipc=362.9) sim_rate=332702 (inst/sec) elapsed = 0:0:00:42 / Wed May  1 12:44:48 2019
GPGPU-Sim PTX: 14700000 instructions simulated : ctaid=(116,0,0) tid=(19,0,0)
GPGPU-Sim PTX: 14800000 instructions simulated : ctaid=(91,0,0) tid=(230,0,0)
GPGPU-Sim PTX: 14900000 instructions simulated : ctaid=(35,0,0) tid=(1,0,0)
GPGPU-Sim uArch: Shader 11 finished CTA #2 (39278,0), 5 CTAs running
GPGPU-Sim uArch: core: 11, cta: 2 initialized @(39279,0)
GPGPU-Sim uArch: Shader 4 finished CTA #2 (39284,0), 5 CTAs running
GPGPU-Sim uArch: core:  4, cta: 2 initialized @(39285,0)
GPGPU-Sim uArch: Shader 0 finished CTA #2 (39338,0), 5 CTAs running
GPGPU-Sim uArch: core:  0, cta: 2 initialized @(39339,0)
GPGPU-Sim PTX: 15000000 instructions simulated : ctaid=(63,0,0) tid=(42,0,0)
GPGPU-Sim PTX: 15100000 instructions simulated : ctaid=(36,0,0) tid=(2,0,0)
GPGPU-Sim uArch: Shader 12 finished CTA #2 (39660,0), 5 CTAs running
GPGPU-Sim uArch: core: 12, cta: 2 initialized @(39661,0)
GPGPU-Sim uArch: Shader 13 finished CTA #2 (39882,0), 5 CTAs running
GPGPU-Sim uArch: core: 13, cta: 2 initialized @(39883,0)
GPGPU-Sim uArch: Shader 9 finished CTA #2 (39887,0), 5 CTAs running
GPGPU-Sim uArch: Shader 1 finished CTA #2 (39889,0), 5 CTAs running
GPGPU-Sim uArch: Shader 10 finished CTA #2 (39893,0), 5 CTAs running
GPGPU-Sim PTX: 15200000 instructions simulated : ctaid=(97,0,0) tid=(129,0,0)
GPGPU-Sim uArch: cycles simulated: 40000  inst.: 14535265 (ipc=363.4) sim_rate=338029 (inst/sec) elapsed = 0:0:00:43 / Wed May  1 12:44:49 2019
GPGPU-Sim PTX: 15300000 instructions simulated : ctaid=(61,0,0) tid=(251,0,0)
GPGPU-Sim PTX: 15400000 instructions simulated : ctaid=(91,0,0) tid=(160,0,0)
GPGPU-Sim PTX: 15500000 instructions simulated : ctaid=(35,0,0) tid=(77,0,0)
GPGPU-Sim PTX: 15600000 instructions simulated : ctaid=(35,0,0) tid=(29,0,0)
GPGPU-Sim uArch: Shader 7 finished CTA #2 (40804,0), 5 CTAs running
GPGPU-Sim PTX: 15700000 instructions simulated : ctaid=(79,0,0) tid=(1,0,0)
GPGPU-Sim uArch: cycles simulated: 41000  inst.: 14995913 (ipc=365.8) sim_rate=340816 (inst/sec) elapsed = 0:0:00:44 / Wed May  1 12:44:50 2019
GPGPU-Sim PTX: 15800000 instructions simulated : ctaid=(43,0,0) tid=(102,0,0)
GPGPU-Sim uArch: Shader 6 finished CTA #2 (41180,0), 5 CTAs running
GPGPU-Sim PTX: 15900000 instructions simulated : ctaid=(50,0,0) tid=(160,0,0)
GPGPU-Sim uArch: cycles simulated: 41500  inst.: 15252078 (ipc=367.5) sim_rate=338935 (inst/sec) elapsed = 0:0:00:45 / Wed May  1 12:44:51 2019
GPGPU-Sim PTX: 16000000 instructions simulated : ctaid=(83,0,0) tid=(14,0,0)
GPGPU-Sim PTX: 16100000 instructions simulated : ctaid=(48,0,0) tid=(124,0,0)
GPGPU-Sim PTX: 16200000 instructions simulated : ctaid=(48,0,0) tid=(132,0,0)
GPGPU-Sim uArch: Shader 2 finished CTA #2 (41953,0), 5 CTAs running
GPGPU-Sim uArch: cycles simulated: 42000  inst.: 15471890 (ipc=368.4) sim_rate=336345 (inst/sec) elapsed = 0:0:00:46 / Wed May  1 12:44:52 2019
GPGPU-Sim PTX: 16300000 instructions simulated : ctaid=(80,0,0) tid=(238,0,0)
GPGPU-Sim PTX: 16400000 instructions simulated : ctaid=(48,0,0) tid=(11,0,0)
GPGPU-Sim uArch: cycles simulated: 42500  inst.: 15687909 (ipc=369.1) sim_rate=333785 (inst/sec) elapsed = 0:0:00:47 / Wed May  1 12:44:53 2019
GPGPU-Sim PTX: 16500000 instructions simulated : ctaid=(127,0,0) tid=(242,0,0)
GPGPU-Sim PTX: 16600000 instructions simulated : ctaid=(81,0,0) tid=(5,0,0)
GPGPU-Sim uArch: Shader 14 finished CTA #2 (42829,0), 5 CTAs running
GPGPU-Sim uArch: Shader 5 finished CTA #3 (42968,0), 5 CTAs running
GPGPU-Sim PTX: 16700000 instructions simulated : ctaid=(80,0,0) tid=(219,0,0)
GPGPU-Sim uArch: Shader 1 finished CTA #3 (43151,0), 4 CTAs running
GPGPU-Sim PTX: 16800000 instructions simulated : ctaid=(84,0,0) tid=(255,0,0)
GPGPU-Sim PTX: 16900000 instructions simulated : ctaid=(108,0,0) tid=(15,0,0)
GPGPU-Sim uArch: cycles simulated: 43500  inst.: 16132729 (ipc=370.9) sim_rate=336098 (inst/sec) elapsed = 0:0:00:48 / Wed May  1 12:44:54 2019
GPGPU-Sim uArch: Shader 10 finished CTA #3 (43669,0), 4 CTAs running
GPGPU-Sim PTX: 17000000 instructions simulated : ctaid=(66,0,0) tid=(104,0,0)
GPGPU-Sim PTX: 17100000 instructions simulated : ctaid=(56,0,0) tid=(50,0,0)
GPGPU-Sim uArch: Shader 11 finished CTA #3 (44036,0), 5 CTAs running
GPGPU-Sim uArch: Shader 8 finished CTA #3 (44173,0), 5 CTAs running
GPGPU-Sim PTX: 17200000 instructions simulated : ctaid=(76,0,0) tid=(93,0,0)
GPGPU-Sim uArch: Shader 3 finished CTA #3 (44233,0), 5 CTAs running
GPGPU-Sim PTX: 17300000 instructions simulated : ctaid=(90,0,0) tid=(100,0,0)
GPGPU-Sim uArch: cycles simulated: 44500  inst.: 16504578 (ipc=370.9) sim_rate=336828 (inst/sec) elapsed = 0:0:00:49 / Wed May  1 12:44:55 2019
GPGPU-Sim PTX: 17400000 instructions simulated : ctaid=(62,0,0) tid=(247,0,0)
GPGPU-Sim PTX: 17500000 instructions simulated : ctaid=(116,0,0) tid=(253,0,0)
GPGPU-Sim uArch: Shader 9 finished CTA #3 (45066,0), 4 CTAs running
GPGPU-Sim uArch: Shader 4 finished CTA #3 (45150,0), 5 CTAs running
GPGPU-Sim PTX: 17600000 instructions simulated : ctaid=(93,0,0) tid=(173,0,0)
GPGPU-Sim uArch: Shader 6 finished CTA #3 (45427,0), 4 CTAs running
GPGPU-Sim uArch: cycles simulated: 45500  inst.: 16870293 (ipc=370.8) sim_rate=337405 (inst/sec) elapsed = 0:0:00:50 / Wed May  1 12:44:56 2019
GPGPU-Sim PTX: 17700000 instructions simulated : ctaid=(110,0,0) tid=(99,0,0)
GPGPU-Sim PTX: 17800000 instructions simulated : ctaid=(85,0,0) tid=(172,0,0)
GPGPU-Sim uArch: Shader 7 finished CTA #3 (45987,0), 4 CTAs running
GPGPU-Sim PTX: 17900000 instructions simulated : ctaid=(114,0,0) tid=(239,0,0)
GPGPU-Sim uArch: Shader 0 finished CTA #3 (46284,0), 5 CTAs running
GPGPU-Sim PTX: 18000000 instructions simulated : ctaid=(81,0,0) tid=(149,0,0)
GPGPU-Sim uArch: Shader 12 finished CTA #3 (46550,0), 5 CTAs running
GPGPU-Sim uArch: Shader 1 finished CTA #4 (46676,0), 3 CTAs running
GPGPU-Sim uArch: Shader 13 finished CTA #3 (46786,0), 5 CTAs running
GPGPU-Sim PTX: 18100000 instructions simulated : ctaid=(108,0,0) tid=(193,0,0)
GPGPU-Sim uArch: cycles simulated: 47000  inst.: 17323699 (ipc=368.6) sim_rate=339680 (inst/sec) elapsed = 0:0:00:51 / Wed May  1 12:44:57 2019
GPGPU-Sim PTX: 18200000 instructions simulated : ctaid=(83,0,0) tid=(129,0,0)
GPGPU-Sim PTX: 18300000 instructions simulated : ctaid=(62,0,0) tid=(151,0,0)
GPGPU-Sim uArch: cycles simulated: 47500  inst.: 17497684 (ipc=368.4) sim_rate=336493 (inst/sec) elapsed = 0:0:00:52 / Wed May  1 12:44:58 2019
GPGPU-Sim PTX: 18400000 instructions simulated : ctaid=(115,0,0) tid=(251,0,0)
GPGPU-Sim uArch: Shader 14 finished CTA #3 (47734,0), 4 CTAs running
GPGPU-Sim PTX: 18500000 instructions simulated : ctaid=(102,0,0) tid=(185,0,0)
GPGPU-Sim PTX: 18600000 instructions simulated : ctaid=(65,0,0) tid=(77,0,0)
GPGPU-Sim PTX: 18700000 instructions simulated : ctaid=(94,0,0) tid=(167,0,0)
GPGPU-Sim uArch: cycles simulated: 48500  inst.: 17884182 (ipc=368.7) sim_rate=337437 (inst/sec) elapsed = 0:0:00:53 / Wed May  1 12:44:59 2019
GPGPU-Sim PTX: 18800000 instructions simulated : ctaid=(78,0,0) tid=(33,0,0)
GPGPU-Sim uArch: Shader 2 finished CTA #3 (48717,0), 4 CTAs running
GPGPU-Sim PTX: 18900000 instructions simulated : ctaid=(87,0,0) tid=(247,0,0)
GPGPU-Sim uArch: Shader 3 finished CTA #4 (48976,0), 4 CTAs running
GPGPU-Sim uArch: cycles simulated: 49000  inst.: 18103373 (ipc=369.5) sim_rate=335247 (inst/sec) elapsed = 0:0:00:54 / Wed May  1 12:45:00 2019
GPGPU-Sim PTX: 19000000 instructions simulated : ctaid=(66,0,0) tid=(213,0,0)
GPGPU-Sim uArch: Shader 5 finished CTA #4 (49103,0), 4 CTAs running
GPGPU-Sim PTX: 19100000 instructions simulated : ctaid=(92,0,0) tid=(17,0,0)
GPGPU-Sim uArch: Shader 6 finished CTA #4 (49312,0), 3 CTAs running
GPGPU-Sim PTX: 19200000 instructions simulated : ctaid=(80,0,0) tid=(28,0,0)
GPGPU-Sim uArch: Shader 10 finished CTA #4 (49472,0), 3 CTAs running
GPGPU-Sim uArch: cycles simulated: 49500  inst.: 18341176 (ipc=370.5) sim_rate=333475 (inst/sec) elapsed = 0:0:00:55 / Wed May  1 12:45:01 2019
GPGPU-Sim PTX: 19300000 instructions simulated : ctaid=(123,0,0) tid=(143,0,0)
GPGPU-Sim PTX: 19400000 instructions simulated : ctaid=(86,0,0) tid=(131,0,0)
GPGPU-Sim PTX: 19500000 instructions simulated : ctaid=(96,0,0) tid=(63,0,0)
GPGPU-Sim uArch: cycles simulated: 50000  inst.: 18615725 (ipc=372.3) sim_rate=332423 (inst/sec) elapsed = 0:0:00:56 / Wed May  1 12:45:02 2019
GPGPU-Sim PTX: 19600000 instructions simulated : ctaid=(103,0,0) tid=(247,0,0)
GPGPU-Sim uArch: Shader 7 finished CTA #4 (50200,0), 3 CTAs running
GPGPU-Sim PTX: 19700000 instructions simulated : ctaid=(71,0,0) tid=(187,0,0)
GPGPU-Sim PTX: 19800000 instructions simulated : ctaid=(94,0,0) tid=(176,0,0)
GPGPU-Sim uArch: Shader 9 finished CTA #4 (50707,0), 3 CTAs running
GPGPU-Sim PTX: 19900000 instructions simulated : ctaid=(124,0,0) tid=(221,0,0)
GPGPU-Sim uArch: Shader 8 finished CTA #4 (50821,0), 4 CTAs running
GPGPU-Sim uArch: Shader 2 finished CTA #4 (51025,0), 3 CTAs running
GPGPU-Sim PTX: 20000000 instructions simulated : ctaid=(97,0,0) tid=(67,0,0)
GPGPU-Sim uArch: Shader 12 finished CTA #4 (51162,0), 4 CTAs running
GPGPU-Sim PTX: 20100000 instructions simulated : ctaid=(107,0,0) tid=(242,0,0)
GPGPU-Sim uArch: Shader 10 finished CTA #5 (51350,0), 2 CTAs running
GPGPU-Sim uArch: Shader 11 finished CTA #4 (51441,0), 4 CTAs running
GPGPU-Sim PTX: 20200000 instructions simulated : ctaid=(121,0,0) tid=(93,0,0)
GPGPU-Sim uArch: cycles simulated: 51500  inst.: 19287797 (ipc=374.5) sim_rate=338382 (inst/sec) elapsed = 0:0:00:57 / Wed May  1 12:45:03 2019
GPGPU-Sim uArch: Shader 13 finished CTA #4 (51594,0), 4 CTAs running
GPGPU-Sim uArch: Shader 4 finished CTA #4 (51630,0), 4 CTAs running
GPGPU-Sim PTX: 20300000 instructions simulated : ctaid=(102,0,0) tid=(254,0,0)
GPGPU-Sim PTX: 20400000 instructions simulated : ctaid=(119,0,0) tid=(179,0,0)
GPGPU-Sim uArch: Shader 0 finished CTA #4 (51921,0), 4 CTAs running
GPGPU-Sim PTX: 20500000 instructions simulated : ctaid=(73,0,0) tid=(195,0,0)
GPGPU-Sim PTX: 20600000 instructions simulated : ctaid=(103,0,0) tid=(121,0,0)
GPGPU-Sim PTX: 20700000 instructions simulated : ctaid=(96,0,0) tid=(244,0,0)
GPGPU-Sim uArch: cycles simulated: 52500  inst.: 19752969 (ipc=376.2) sim_rate=340568 (inst/sec) elapsed = 0:0:00:58 / Wed May  1 12:45:04 2019
GPGPU-Sim PTX: 20800000 instructions simulated : ctaid=(100,0,0) tid=(224,0,0)
GPGPU-Sim PTX: 20900000 instructions simulated : ctaid=(79,0,0) tid=(101,0,0)
GPGPU-Sim uArch: Shader 1 finished CTA #5 (52851,0), 2 CTAs running
GPGPU-Sim PTX: 21000000 instructions simulated : ctaid=(83,0,0) tid=(106,0,0)
GPGPU-Sim PTX: 21100000 instructions simulated : ctaid=(110,0,0) tid=(100,0,0)
GPGPU-Sim PTX: 21200000 instructions simulated : ctaid=(102,0,0) tid=(15,0,0)
GPGPU-Sim PTX: 21300000 instructions simulated : ctaid=(118,0,0) tid=(179,0,0)
GPGPU-Sim PTX: 21400000 instructions simulated : ctaid=(94,0,0) tid=(188,0,0)
GPGPU-Sim uArch: Shader 3 finished CTA #5 (53849,0), 3 CTAs running
GPGPU-Sim PTX: 21500000 instructions simulated : ctaid=(127,0,0) tid=(248,0,0)
GPGPU-Sim uArch: Shader 8 finished CTA #5 (53946,0), 3 CTAs running
GPGPU-Sim uArch: Shader 14 finished CTA #4 (53963,0), 3 CTAs running
GPGPU-Sim uArch: cycles simulated: 54000  inst.: 20566632 (ipc=380.9) sim_rate=348586 (inst/sec) elapsed = 0:0:00:59 / Wed May  1 12:45:05 2019
GPGPU-Sim PTX: 21600000 instructions simulated : ctaid=(87,0,0) tid=(222,0,0)
GPGPU-Sim uArch: Shader 7 finished CTA #5 (54161,0), 2 CTAs running
GPGPU-Sim PTX: 21700000 instructions simulated : ctaid=(116,0,0) tid=(197,0,0)
GPGPU-Sim uArch: Shader 5 finished CTA #5 (54371,0), 3 CTAs running
GPGPU-Sim uArch: Shader 11 finished CTA #5 (54385,0), 3 CTAs running
GPGPU-Sim PTX: 21800000 instructions simulated : ctaid=(120,0,0) tid=(237,0,0)
GPGPU-Sim uArch: Shader 9 finished CTA #5 (54527,0), 2 CTAs running
GPGPU-Sim uArch: Shader 6 finished CTA #5 (54629,0), 2 CTAs running
GPGPU-Sim PTX: 21900000 instructions simulated : ctaid=(96,0,0) tid=(203,0,0)
GPGPU-Sim uArch: Shader 13 finished CTA #5 (54802,0), 3 CTAs running
GPGPU-Sim PTX: 22000000 instructions simulated : ctaid=(100,0,0) tid=(225,0,0)
GPGPU-Sim uArch: Shader 2 finished CTA #5 (54874,0), 2 CTAs running
GPGPU-Sim uArch: cycles simulated: 55000  inst.: 21049791 (ipc=382.7) sim_rate=350829 (inst/sec) elapsed = 0:0:01:00 / Wed May  1 12:45:06 2019
GPGPU-Sim PTX: 22100000 instructions simulated : ctaid=(120,0,0) tid=(68,0,0)
GPGPU-Sim PTX: 22200000 instructions simulated : ctaid=(89,0,0) tid=(7,0,0)
GPGPU-Sim uArch: Shader 12 finished CTA #5 (55508,0), 3 CTAs running
GPGPU-Sim PTX: 22300000 instructions simulated : ctaid=(122,0,0) tid=(79,0,0)
GPGPU-Sim uArch: Shader 4 finished CTA #5 (55679,0), 3 CTAs running
GPGPU-Sim PTX: 22400000 instructions simulated : ctaid=(107,0,0) tid=(93,0,0)
GPGPU-Sim uArch: cycles simulated: 56000  inst.: 21439274 (ipc=382.8) sim_rate=351463 (inst/sec) elapsed = 0:0:01:01 / Wed May  1 12:45:07 2019
GPGPU-Sim PTX: 22500000 instructions simulated : ctaid=(110,0,0) tid=(76,0,0)
GPGPU-Sim PTX: 22600000 instructions simulated : ctaid=(92,0,0) tid=(117,0,0)
GPGPU-Sim uArch: Shader 14 finished CTA #5 (56417,0), 2 CTAs running
GPGPU-Sim uArch: cycles simulated: 56500  inst.: 21639783 (ipc=383.0) sim_rate=349028 (inst/sec) elapsed = 0:0:01:02 / Wed May  1 12:45:08 2019
GPGPU-Sim PTX: 22700000 instructions simulated : ctaid=(109,0,0) tid=(121,0,0)
GPGPU-Sim PTX: 22800000 instructions simulated : ctaid=(122,0,0) tid=(157,0,0)
GPGPU-Sim uArch: cycles simulated: 57000  inst.: 21829021 (ipc=383.0) sim_rate=346492 (inst/sec) elapsed = 0:0:01:03 / Wed May  1 12:45:09 2019
GPGPU-Sim PTX: 22900000 instructions simulated : ctaid=(91,0,0) tid=(225,0,0)
GPGPU-Sim PTX: 23000000 instructions simulated : ctaid=(112,0,0) tid=(55,0,0)
GPGPU-Sim uArch: Shader 10 finished CTA #0 (57424,0), 1 CTAs running
GPGPU-Sim PTX: 23100000 instructions simulated : ctaid=(127,0,0) tid=(89,0,0)
GPGPU-Sim uArch: Shader 0 finished CTA #5 (57631,0), 3 CTAs running
GPGPU-Sim PTX: 23200000 instructions simulated : ctaid=(109,0,0) tid=(103,0,0)
GPGPU-Sim uArch: Shader 1 finished CTA #0 (57805,0), 1 CTAs running
GPGPU-Sim uArch: cycles simulated: 58000  inst.: 22215631 (ipc=383.0) sim_rate=347119 (inst/sec) elapsed = 0:0:01:04 / Wed May  1 12:45:10 2019
GPGPU-Sim PTX: 23300000 instructions simulated : ctaid=(124,0,0) tid=(132,0,0)
GPGPU-Sim PTX: 23400000 instructions simulated : ctaid=(97,0,0) tid=(173,0,0)
GPGPU-Sim PTX: 23500000 instructions simulated : ctaid=(121,0,0) tid=(211,0,0)
GPGPU-Sim uArch: Shader 3 finished CTA #0 (58508,0), 2 CTAs running
GPGPU-Sim uArch: Shader 5 finished CTA #0 (58593,0), 2 CTAs running
GPGPU-Sim PTX: 23600000 instructions simulated : ctaid=(99,0,0) tid=(37,0,0)
GPGPU-Sim PTX: 23700000 instructions simulated : ctaid=(97,0,0) tid=(52,0,0)
GPGPU-Sim uArch: cycles simulated: 59000  inst.: 22632975 (ipc=383.6) sim_rate=348199 (inst/sec) elapsed = 0:0:01:05 / Wed May  1 12:45:11 2019
GPGPU-Sim PTX: 23800000 instructions simulated : ctaid=(112,0,0) tid=(127,0,0)
GPGPU-Sim uArch: Shader 6 finished CTA #0 (59216,0), 1 CTAs running
GPGPU-Sim PTX: 23900000 instructions simulated : ctaid=(95,0,0) tid=(189,0,0)
GPGPU-Sim uArch: Shader 1 finished CTA #1 (59551,0), 0 CTAs running
GPGPU-Sim uArch: Shader 1 empty (release kernel 1 '_Z13scalarProdGPUPfS_S_ii').
GPGPU-Sim uArch: Shader 7 finished CTA #0 (59667,0), 1 CTAs running
GPGPU-Sim PTX: 24000000 instructions simulated : ctaid=(107,0,0) tid=(28,0,0)
GPGPU-Sim uArch: Shader 9 finished CTA #0 (59853,0), 1 CTAs running
GPGPU-Sim PTX: 24100000 instructions simulated : ctaid=(95,0,0) tid=(1,0,0)
GPGPU-Sim PTX: 24200000 instructions simulated : ctaid=(101,0,0) tid=(173,0,0)
GPGPU-Sim uArch: Shader 11 finished CTA #0 (60262,0), 2 CTAs running
GPGPU-Sim uArch: cycles simulated: 60500  inst.: 23164076 (ipc=382.9) sim_rate=350970 (inst/sec) elapsed = 0:0:01:06 / Wed May  1 12:45:12 2019
GPGPU-Sim PTX: 24300000 instructions simulated : ctaid=(118,0,0) tid=(235,0,0)
GPGPU-Sim uArch: Shader 12 finished CTA #0 (60694,0), 2 CTAs running
GPGPU-Sim PTX: 24400000 instructions simulated : ctaid=(103,0,0) tid=(187,0,0)
GPGPU-Sim uArch: Shader 10 finished CTA #1 (60909,0), 0 CTAs running
GPGPU-Sim uArch: Shader 10 empty (release kernel 1 '_Z13scalarProdGPUPfS_S_ii').
GPGPU-Sim PTX: 24500000 instructions simulated : ctaid=(122,0,0) tid=(199,0,0)
GPGPU-Sim uArch: Shader 8 finished CTA #0 (61195,0), 2 CTAs running
GPGPU-Sim uArch: Shader 0 finished CTA #0 (61286,0), 2 CTAs running
GPGPU-Sim PTX: 24600000 instructions simulated : ctaid=(118,0,0) tid=(184,0,0)
GPGPU-Sim uArch: Shader 14 finished CTA #0 (61563,0), 1 CTAs running
GPGPU-Sim uArch: Shader 13 finished CTA #0 (61565,0), 2 CTAs running
GPGPU-Sim PTX: 24700000 instructions simulated : ctaid=(114,0,0) tid=(211,0,0)
GPGPU-Sim PTX: 24800000 instructions simulated : ctaid=(125,0,0) tid=(157,0,0)
GPGPU-Sim uArch: Shader 5 finished CTA #1 (61938,0), 1 CTAs running
GPGPU-Sim uArch: Shader 3 finished CTA #1 (62114,0), 1 CTAs running
GPGPU-Sim PTX: 24900000 instructions simulated : ctaid=(111,0,0) tid=(178,0,0)
GPGPU-Sim uArch: Shader 9 finished CTA #1 (62410,0), 0 CTAs running
GPGPU-Sim uArch: Shader 9 empty (release kernel 1 '_Z13scalarProdGPUPfS_S_ii').
GPGPU-Sim uArch: Shader 4 finished CTA #0 (62444,0), 2 CTAs running
GPGPU-Sim uArch: cycles simulated: 62500  inst.: 23816797 (ipc=381.1) sim_rate=355474 (inst/sec) elapsed = 0:0:01:07 / Wed May  1 12:45:13 2019
GPGPU-Sim PTX: 25000000 instructions simulated : ctaid=(120,0,0) tid=(100,0,0)
GPGPU-Sim uArch: Shader 6 finished CTA #1 (62753,0), 0 CTAs running
GPGPU-Sim uArch: Shader 6 empty (release kernel 1 '_Z13scalarProdGPUPfS_S_ii').
GPGPU-Sim uArch: Shader 7 finished CTA #1 (62883,0), 0 CTAs running
GPGPU-Sim uArch: Shader 7 empty (release kernel 1 '_Z13scalarProdGPUPfS_S_ii').
GPGPU-Sim PTX: 25100000 instructions simulated : ctaid=(116,0,0) tid=(171,0,0)
GPGPU-Sim uArch: Shader 2 finished CTA #0 (62981,0), 1 CTAs running
GPGPU-Sim uArch: Shader 11 finished CTA #1 (63026,0), 1 CTAs running
GPGPU-Sim uArch: Shader 12 finished CTA #1 (63156,0), 1 CTAs running
GPGPU-Sim uArch: Shader 14 finished CTA #1 (63252,0), 0 CTAs running
GPGPU-Sim uArch: Shader 14 empty (release kernel 1 '_Z13scalarProdGPUPfS_S_ii').
GPGPU-Sim PTX: 25200000 instructions simulated : ctaid=(108,0,0) tid=(97,0,0)
GPGPU-Sim PTX: 25300000 instructions simulated : ctaid=(112,0,0) tid=(11,0,0)
GPGPU-Sim uArch: Shader 8 finished CTA #1 (63987,0), 1 CTAs running
GPGPU-Sim uArch: Shader 5 finished CTA #2 (64022,0), 0 CTAs running
GPGPU-Sim uArch: Shader 5 empty (release kernel 1 '_Z13scalarProdGPUPfS_S_ii').
GPGPU-Sim uArch: Shader 13 finished CTA #1 (64188,0), 1 CTAs running
GPGPU-Sim uArch: Shader 4 finished CTA #1 (64227,0), 1 CTAs running
GPGPU-Sim uArch: Shader 0 finished CTA #1 (64427,0), 1 CTAs running
GPGPU-Sim uArch: Shader 2 finished CTA #1 (64707,0), 0 CTAs running
GPGPU-Sim uArch: Shader 2 empty (release kernel 1 '_Z13scalarProdGPUPfS_S_ii').
GPGPU-Sim PTX: 25400000 instructions simulated : ctaid=(126,0,0) tid=(171,0,0)
GPGPU-Sim uArch: Shader 3 finished CTA #2 (64931,0), 0 CTAs running
GPGPU-Sim uArch: Shader 3 empty (release kernel 1 '_Z13scalarProdGPUPfS_S_ii').
GPGPU-Sim uArch: cycles simulated: 65000  inst.: 24255822 (ipc=373.2) sim_rate=356703 (inst/sec) elapsed = 0:0:01:08 / Wed May  1 12:45:14 2019
GPGPU-Sim PTX: 25500000 instructions simulated : ctaid=(121,0,0) tid=(143,0,0)
GPGPU-Sim uArch: Shader 12 finished CTA #2 (65981,0), 0 CTAs running
GPGPU-Sim uArch: Shader 12 empty (release kernel 1 '_Z13scalarProdGPUPfS_S_ii').
GPGPU-Sim uArch: Shader 4 finished CTA #2 (66363,0), 0 CTAs running
GPGPU-Sim uArch: Shader 4 empty (release kernel 1 '_Z13scalarProdGPUPfS_S_ii').
GPGPU-Sim PTX: 25600000 instructions simulated : ctaid=(121,0,0) tid=(108,0,0)
GPGPU-Sim uArch: Shader 11 finished CTA #2 (66500,0), 0 CTAs running
GPGPU-Sim uArch: Shader 11 empty (release kernel 1 '_Z13scalarProdGPUPfS_S_ii').
GPGPU-Sim uArch: Shader 8 finished CTA #2 (66634,0), 0 CTAs running
GPGPU-Sim uArch: Shader 8 empty (release kernel 1 '_Z13scalarProdGPUPfS_S_ii').
GPGPU-Sim uArch: Shader 13 finished CTA #2 (66826,0), 0 CTAs running
GPGPU-Sim uArch: Shader 13 empty (release kernel 1 '_Z13scalarProdGPUPfS_S_ii').
GPGPU-Sim uArch: Shader 0 finished CTA #2 (67392,0), 0 CTAs running
GPGPU-Sim uArch: Shader 0 empty (release kernel 1 '_Z13scalarProdGPUPfS_S_ii').
GPGPU-Sim uArch: GPU detected kernel '_Z13scalarProdGPUPfS_S_ii' finished on shader 0.
kernel_name = _Z13scalarProdGPUPfS_S_ii 
kernel_launch_uid = 1 
gpu_sim_cycle = 67393
gpu_sim_insn = 24441600
gpu_ipc =     362.6727
gpu_tot_sim_cycle = 67393
gpu_tot_sim_insn = 24441600
gpu_tot_ipc =     362.6727
gpu_tot_issued_cta = 0
gpu_stall_dramfull = 44397
gpu_stall_icnt2sh    = 344363
gpu_total_sim_rate=359435

========= Core cache stats =========
L1I_cache:
	L1I_total_cache_accesses = 465707
	L1I_total_cache_misses = 2091
	L1I_total_cache_miss_rate = 0.0045
	L1I_total_cache_pending_hits = 0
	L1I_total_cache_reservation_fails = 6262
L1D_cache:
	L1D_cache_core[0]: Access = 4626, Miss = 4626, Miss_rate = 1.000, Pending_hits = 0, Reservation_fails = 40054
	L1D_cache_core[1]: Access = 4112, Miss = 4112, Miss_rate = 1.000, Pending_hits = 0, Reservation_fails = 33550
	L1D_cache_core[2]: Access = 4112, Miss = 4112, Miss_rate = 1.000, Pending_hits = 0, Reservation_fails = 38199
	L1D_cache_core[3]: Access = 4626, Miss = 4626, Miss_rate = 1.000, Pending_hits = 0, Reservation_fails = 36460
	L1D_cache_core[4]: Access = 4626, Miss = 4626, Miss_rate = 1.000, Pending_hits = 0, Reservation_fails = 41272
	L1D_cache_core[5]: Access = 4626, Miss = 4626, Miss_rate = 1.000, Pending_hits = 0, Reservation_fails = 37244
	L1D_cache_core[6]: Access = 4112, Miss = 4112, Miss_rate = 1.000, Pending_hits = 0, Reservation_fails = 36077
	L1D_cache_core[7]: Access = 4112, Miss = 4112, Miss_rate = 1.000, Pending_hits = 0, Reservation_fails = 35871
	L1D_cache_core[8]: Access = 4626, Miss = 4626, Miss_rate = 1.000, Pending_hits = 0, Reservation_fails = 38303
	L1D_cache_core[9]: Access = 4112, Miss = 4112, Miss_rate = 1.000, Pending_hits = 0, Reservation_fails = 35506
	L1D_cache_core[10]: Access = 4112, Miss = 4112, Miss_rate = 1.000, Pending_hits = 0, Reservation_fails = 34505
	L1D_cache_core[11]: Access = 4626, Miss = 4626, Miss_rate = 1.000, Pending_hits = 0, Reservation_fails = 37744
	L1D_cache_core[12]: Access = 4626, Miss = 4626, Miss_rate = 1.000, Pending_hits = 0, Reservation_fails = 37734
	L1D_cache_core[13]: Access = 4626, Miss = 4626, Miss_rate = 1.000, Pending_hits = 0, Reservation_fails = 38405
	L1D_cache_core[14]: Access = 4112, Miss = 4112, Miss_rate = 1.000, Pending_hits = 0, Reservation_fails = 36904
	L1D_total_cache_accesses = 65792
	L1D_total_cache_misses = 65792
	L1D_total_cache_miss_rate = 1.0000
	L1D_total_cache_pending_hits = 0
	L1D_total_cache_reservation_fails = 557828
	L1D_cache_data_port_util = 0.000
	L1D_cache_fill_port_util = 0.068
L1C_cache:
	L1C_total_cache_accesses = 19712
	L1C_total_cache_misses = 480
	L1C_total_cache_miss_rate = 0.0244
	L1C_total_cache_pending_hits = 0
	L1C_total_cache_reservation_fails = 3404
L1T_cache:
	L1T_total_cache_accesses = 0
	L1T_total_cache_misses = 0
	L1T_total_cache_pending_hits = 0
	L1T_total_cache_reservation_fails = 0

Total_core_cache_stats:
	Total_core_cache_stats_breakdown[GLOBAL_ACC_R][MISS] = 65536
	Total_core_cache_stats_breakdown[GLOBAL_ACC_R][RESERVATION_FAIL] = 556979
	Total_core_cache_stats_breakdown[CONST_ACC_R][HIT] = 19232
	Total_core_cache_stats_breakdown[CONST_ACC_R][MISS] = 480
	Total_core_cache_stats_breakdown[CONST_ACC_R][RESERVATION_FAIL] = 3404
	Total_core_cache_stats_breakdown[GLOBAL_ACC_W][MISS] = 256
	Total_core_cache_stats_breakdown[GLOBAL_ACC_W][RESERVATION_FAIL] = 849
	Total_core_cache_stats_breakdown[INST_ACC_R][HIT] = 463616
	Total_core_cache_stats_breakdown[INST_ACC_R][MISS] = 2091
	Total_core_cache_stats_breakdown[INST_ACC_R][RESERVATION_FAIL] = 6262
Shader 0 warp_id issue ditsribution:
warp_id:
0, 1, 2, 3, 4, 5, 6, 7, 8, 9, 10, 11, 12, 13, 14, 15, 16, 17, 18, 19, 20, 21, 22, 23, 24, 25, 26, 27, 28, 29, 30, 31, 32, 33, 34, 35, 36, 37, 38, 39, 40, 41, 42, 43, 44, 45, 46, 47, 
distro:
2148, 1644, 1564, 1564, 1484, 1484, 1484, 1484, 2148, 1644, 1564, 1564, 1484, 1484, 1484, 1484, 2148, 1644, 1564, 1564, 1484, 1484, 1484, 1484, 1074, 822, 782, 782, 742, 742, 742, 742, 1074, 822, 782, 782, 742, 742, 742, 742, 1074, 822, 782, 782, 742, 742, 742, 742, 
gpgpu_n_tot_thrd_icount = 26329088
gpgpu_n_tot_w_icount = 822784
gpgpu_n_stall_shd_mem = 561232
gpgpu_n_mem_read_local = 0
gpgpu_n_mem_write_local = 0
gpgpu_n_mem_read_global = 65536
gpgpu_n_mem_write_global = 256
gpgpu_n_mem_texture = 0
gpgpu_n_mem_const = 15
gpgpu_n_load_insn  = 2097152
gpgpu_n_store_insn = 256
gpgpu_n_shmem_insn = 1048064
gpgpu_n_tex_insn = 0
gpgpu_n_const_mem_insn = 0
gpgpu_n_param_mem_insn = 622848
gpgpu_n_shmem_bkconflict = 0
gpgpu_n_cache_bkconflict = 0
gpgpu_n_intrawarp_mshr_merge = 0
gpgpu_n_cmem_portconflict = 3404
gpgpu_stall_shd_mem[c_mem][bk_conf] = 3404
gpgpu_stall_shd_mem[c_mem][mshr_rc] = 0
gpgpu_stall_shd_mem[c_mem][icnt_rc] = 0
gpgpu_stall_shd_mem[c_mem][data_port_stall] = 0
gpgpu_stall_shd_mem[t_mem][mshr_rc] = 0
gpgpu_stall_shd_mem[t_mem][icnt_rc] = 0
gpgpu_stall_shd_mem[t_mem][data_port_stall] = 0
gpgpu_stall_shd_mem[s_mem][bk_conf] = 0
gpgpu_stall_shd_mem[gl_mem][bk_conf] = 0
gpgpu_stall_shd_mem[gl_mem][coal_stall] = 557828
gpgpu_stall_shd_mem[gl_mem][data_port_stall] = 0
gpgpu_stall_shd_mem[g_mem_ld][mshr_rc] = 0
gpgpu_stall_shd_mem[g_mem_ld][icnt_rc] = 0
gpgpu_stall_shd_mem[g_mem_ld][wb_icnt_rc] = 0
gpgpu_stall_shd_mem[g_mem_ld][wb_rsrv_fail] = 0
gpgpu_stall_shd_mem[g_mem_st][mshr_rc] = 0
gpgpu_stall_shd_mem[g_mem_st][icnt_rc] = 0
gpgpu_stall_shd_mem[g_mem_st][wb_icnt_rc] = 0
gpgpu_stall_shd_mem[g_mem_st][wb_rsrv_fail] = 0
gpgpu_stall_shd_mem[l_mem_ld][mshr_rc] = 0
gpgpu_stall_shd_mem[l_mem_ld][icnt_rc] = 0
gpgpu_stall_shd_mem[l_mem_ld][wb_icnt_rc] = 0
gpgpu_stall_shd_mem[l_mem_ld][wb_rsrv_fail] = 0
gpgpu_stall_shd_mem[l_mem_st][mshr_rc] = 0
gpgpu_stall_shd_mem[l_mem_st][icnt_rc] = 0
gpgpu_stall_shd_mem[l_mem_ld][wb_icnt_rc] = 0
gpgpu_stall_shd_mem[l_mem_ld][wb_rsrv_fail] = 0
gpu_reg_bank_conflict_stalls = 0
Warp Occupancy Distribution:
Stall:792177	W0_Idle:27176	W0_Scoreboard:288121	W1:6656	W2:5120	W3:0	W4:5120	W5:0	W6:0	W7:0	W8:5120	W9:0	W10:0	W11:0	W12:0	W13:0	W14:0	W15:0	W16:5120	W17:0	W18:0	W19:0	W20:0	W21:0	W22:0	W23:0	W24:0	W25:0	W26:0	W27:0	W28:0	W29:0	W30:0	W31:0	W32:795648
traffic_breakdown_coretomem[CONST_ACC_R] = 120 {8:15,}
traffic_breakdown_coretomem[GLOBAL_ACC_R] = 524288 {8:65536,}
traffic_breakdown_coretomem[GLOBAL_ACC_W] = 10240 {40:256,}
traffic_breakdown_coretomem[INST_ACC_R] = 840 {8:105,}
traffic_breakdown_memtocore[CONST_ACC_R] = 1080 {72:15,}
traffic_breakdown_memtocore[GLOBAL_ACC_R] = 8912896 {136:65536,}
traffic_breakdown_memtocore[GLOBAL_ACC_W] = 2048 {8:256,}
traffic_breakdown_memtocore[INST_ACC_R] = 14280 {136:105,}
maxmrqlatency = 397 
maxdqlatency = 0 
maxmflatency = 971 
averagemflatency = 353 
max_icnt2mem_latency = 481 
max_icnt2sh_latency = 67392 
mrq_lat_table:42848 	1545 	1951 	4025 	7697 	5279 	2068 	156 	8 	0 	0 	0 	0 	0 	0 	0 	0 	0 	0 	0 	0 	0 	0 	0 	0 	0 	0 	0 	0 	0 	0 	0 	
dq_lat_table:0 	0 	0 	0 	0 	0 	0 	0 	0 	0 	0 	0 	0 	0 	0 	0 	0 	0 	0 	0 	0 	0 	0 	0 	0 	0 	0 	0 	0 	0 	0 	0 	
mf_lat_table:0 	0 	0 	0 	0 	0 	0 	223 	63394 	2190 	0 	0 	0 	0 	0 	0 	0 	0 	0 	0 	0 	0 	0 	0 	0 	0 	0 	0 	0 	0 	0 	0 	
icnt2mem_lat_table:0 	0 	0 	56832 	5366 	1456 	1293 	768 	197 	0 	0 	0 	0 	0 	0 	0 	0 	0 	0 	0 	0 	0 	0 	0 	
icnt2sh_lat_table:0 	0 	0 	8716 	34058 	21301 	1473 	3 	0 	0 	0 	0 	0 	0 	76 	174 	6 	0 	0 	0 	0 	0 	0 	0 	
mf_lat_pw_table:0 	0 	0 	0 	0 	0 	0 	3 	128 	1 	0 	0 	0 	0 	0 	0 	0 	0 	0 	0 	0 	0 	0 	0 	0 	0 	0 	0 	0 	0 	0 	0 	
maximum concurrent accesses to same row:
dram[0]:         6         6         4         5         5         5         5         6         5         6         6         7         6         8         6         6 
dram[1]:         5         6         6         4         6         4         6         6         6         5         6         8         6         7         6         6 
dram[2]:         6         6         5         5         6         6         6         5         6         4         6         6         6         6         6         5 
dram[3]:         5         6         5         4         6         6         6         5         6         6         6         6         6         6         6         5 
dram[4]:         6         6         5         5         5         6         5         4         5         6         6         6         8         6         4         6 
dram[5]:         6         6         4         6         5         6         6         4         6         5         6         7         6         6         5         6 
maximum service time to same row:
dram[0]:      1051      1951      1957      1972      1922      2082      1959      1935      1963      1957      1973      1966      1975      2097      1938      1941 
dram[1]:      1443      1954      1961      1979      1926      2085      1963      1938      1967      1960      1977      2087      1981      2088      1943      1944 
dram[2]:      1963      1929      1965      1937      1929      1953      1966      1954      1971      1919      1981      1944      1985      2066      1947      2069 
dram[3]:      1966      1932      1969      1941      1934      1957      1975      1959      1976      1924      1985      1949      1988      2069      1951      2074 
dram[4]:      1943      1937      1965      1944      2069      1961      1926      1963      1949      1928      1959      1953      2093      2078      1932      2079 
dram[5]:      1947      1941      1969      1949      2075      1965      1931      1966      1953      1932      1963      1957      2099      2085      1937      2082 
average row accesses per activate:
dram[0]:  1.355422  1.267925  1.263158  1.333333  1.314065  1.319149  1.353846  1.306122  1.320825  1.351248  1.320463  1.335260  1.346693  1.357576  1.379877  1.333333 
dram[1]:  1.290631  1.309942  1.307393  1.287356  1.332031  1.294118  1.372320  1.287020  1.328302  1.385827  1.341177  1.360396  1.365854  1.365854  1.352113  1.382716 
dram[2]:  1.259813  1.379877  1.320236  1.292308  1.337255  1.325581  1.330813  1.361702  1.359073  1.346080  1.338552  1.321705  1.354839  1.379877  1.382716  1.357576 
dram[3]:  1.324803  1.388430  1.277567  1.317647  1.326848  1.335938  1.338403  1.380392  1.380392  1.335863  1.354455  1.353175  1.377049  1.391304  1.354839  1.320236 
dram[4]:  1.357576  1.292308  1.270321  1.344000  1.319149  1.407407  1.335863  1.328302  1.361702  1.333333  1.323136  1.329435  1.320236  1.394191  1.341317  1.357576 
dram[5]:  1.294798  1.317647  1.267925  1.304854  1.350495  1.315385  1.366990  1.323308  1.351248  1.369650  1.354331  1.353175  1.363083  1.391304  1.335984  1.368635 
average row locality = 65577/49028 = 1.337542
number of total memory accesses made:
dram[0]:         0         0         0         0         0         0         0         0         0         0         0         0         0         0         0         0 
dram[1]:         0         0         0         0         0         0         0         0         0         0         0         0         0         0         0         0 
dram[2]:         0         0         0         0         0         0         0         0         0         0         0         0         0         0         0         0 
dram[3]:         0         0         0         0         0         0         0         0         0         0         0         0         0         0         0         0 
dram[4]:         0         0         0         0         0         0         0         0         0         0         0         0         0         0         0         0 
dram[5]:         0         0         0         0         0         0         0         0         0         0         0         0         0         0         0         0 
total accesses: 0
min_bank_accesses = 0!
min_chip_accesses = 0!
number of total read accesses:
dram[0]:       675       672       672       672       682       682       704       704       704       704       684       686       672       672       672       672 
dram[1]:       675       672       672       672       682       682       704       704       704       704       684       684       672       672       672       672 
dram[2]:       674       672       672       672       682       684       704       704       704       704       684       682       672       672       672       672 
dram[3]:       673       672       672       672       682       684       704       704       704       704       684       682       672       672       672       672 
dram[4]:       672       672       672       672       682       684       704       704       704       704       685       682       672       672       672       672 
dram[5]:       672       672       672       672       682       684       704       704       704       704       684       682       672       672       672       672 
total reads: 65556
bank skew: 704/672 = 1.05
chip skew: 10929/10924 = 1.00
number of total write accesses:
dram[0]:         0         0         0         0         0         0         0         0         0         0         0         7         0         0         0         0 
dram[1]:         0         0         0         0         0         0         0         0         0         0         0         3         0         0         0         0 
dram[2]:         0         0         0         0         0         0         0         0         0         0         0         0         0         0         0         0 
dram[3]:         0         0         0         0         0         0         0         0         0         0         0         0         0         0         0         0 
dram[4]:         0         0         0         0         0         0         0         0         0         0         7         0         0         0         0         0 
dram[5]:         0         0         0         0         0         0         0         0         0         0         4         0         0         0         0         0 
total reads: 21
min_bank_accesses = 0!
min_chip_accesses = 0!
average mf latency per bank:
dram[0]:        364       348       365       350       360       348       365       350       358       346       359       362       363       346       358       345
dram[1]:        373       346       371       348       376       347       375       346       366       338       370       361       370       347       368       349
dram[2]:        351       362       351       366       357       369       355       369       347       359       357       362       355       363       352       361
dram[3]:        355       344       355       347       352       347       352       345       352       343       359       347       359       343       356       348
dram[4]:        353       353       352       351       356       351       359       351       348       345       372       353       355       352       349       352
dram[5]:        347       348       349       348       351       349       348       352       347       346       367       351       352       353       348       355
maximum mf latency per bank:
dram[0]:        804       754       778       728       751       695       872       716       811       646       831       730       856       719       779       630
dram[1]:        934       625       928       610       916       629       971       635       896       596       861       700       849       628       815       602
dram[2]:        655       767       652       717       661       858       725       777       706       791       682       802       687       784       677       763
dram[3]:        701       642       674       660       562       735       655       744       650       653       665       745       664       656       553       677
dram[4]:        810       677       783       570       729       663       788       676       786       641       771       657       786       661       730       615
dram[5]:        786       656       796       693       733       648       730       632       721       645       742       675       770       723       716       645

Number of Memory Banks Accessed per Memory Operation per Warp (from 0):
0	0	0	0	0	0	0	0	0	0	0	0	0	0	0	0	0	0	0	0	0	0	0	0	0	0	0	0	0	0	0	0	0	0	0	0	0	0	0	0	0	0	0	0	0	0	0	0	0	0	0	0	0	0	0	0	0	0	0	0	0	0	0	0	0	0	0	0	0	0	0	0	0	0	0	0	0	0	0	0	0	0	0	0	0	0	0	0	0	0	0	0	0	0	0	0	
Average # of Memory Banks Accessed per Memory Operation per Warp=-nan

position of mrq chosen
0	0	0	0	0	0	0	0	0	0	0	0	0	0	0	0	

average position of mrq chosen = -nan
Memory Partition 0: 
Cache L2_bank_000:
MSHR contents

Cache L2_bank_001:
MSHR contents

In Dram Latency Queue (total = 0): 
DRAM[0]: 16 bks, busW=4 BL=8 CL=12, tRRD=2 tCCD=6, tRCD=12 tRAS=28 tRP=12 tRC=40
n_cmd=88958 n_nop=50636 n_act=8235 n_pre=8219 n_req=10936 n_rd=21858 n_write=10 bw_util=0.4916
n_activity=81230 dram_eff=0.5384
bk0: 1350a 67110i bk1: 1344a 66303i bk2: 1344a 64917i bk3: 1344a 66714i bk4: 1364a 65887i bk5: 1364a 65947i bk6: 1408a 64784i bk7: 1408a 63773i bk8: 1408a 66185i bk9: 1408a 65889i bk10: 1368a 65531i bk11: 1372a 64710i bk12: 1344a 65752i bk13: 1344a 66683i bk14: 1344a 66371i bk15: 1344a 66201i 
dram_util_bins: 0 0 0 0 0 0 0 0 0 0
dram_eff_bins: 0 0 0 0 0 0 0 0 0 0
mrqq: max=16 avg=1.60404
Memory Partition 1: 
Cache L2_bank_002:
MSHR contents

Cache L2_bank_003:
MSHR contents

In Dram Latency Queue (total = 0): 
DRAM[1]: 16 bks, busW=4 BL=8 CL=12, tRRD=2 tCCD=6, tRCD=12 tRAS=28 tRP=12 tRC=40
n_cmd=88958 n_nop=50735 n_act=8191 n_pre=8175 n_req=10930 n_rd=21854 n_write=3 bw_util=0.4914
n_activity=81094 dram_eff=0.5391
bk0: 1350a 65616i bk1: 1344a 66577i bk2: 1344a 65455i bk3: 1344a 66116i bk4: 1364a 65601i bk5: 1364a 65356i bk6: 1408a 64505i bk7: 1408a 64254i bk8: 1408a 65730i bk9: 1408a 66845i bk10: 1368a 65810i bk11: 1368a 65768i bk12: 1344a 66212i bk13: 1344a 66323i bk14: 1344a 65676i bk15: 1344a 66055i 
dram_util_bins: 0 0 0 0 0 0 0 0 0 0
dram_eff_bins: 0 0 0 0 0 0 0 0 0 0
mrqq: max=16 avg=1.68048
Memory Partition 2: 
Cache L2_bank_004:
MSHR contents

Cache L2_bank_005:
MSHR contents

In Dram Latency Queue (total = 0): 
DRAM[2]: 16 bks, busW=4 BL=8 CL=12, tRRD=2 tCCD=6, tRCD=12 tRAS=28 tRP=12 tRC=40
n_cmd=88958 n_nop=50812 n_act=8155 n_pre=8139 n_req=10926 n_rd=21852 n_write=0 bw_util=0.4913
n_activity=80843 dram_eff=0.5406
bk0: 1348a 65315i bk1: 1344a 67047i bk2: 1344a 66270i bk3: 1344a 65332i bk4: 1364a 65899i bk5: 1368a 64551i bk6: 1408a 64334i bk7: 1408a 63694i bk8: 1408a 66161i bk9: 1408a 65437i bk10: 1368a 65627i bk11: 1364a 65252i bk12: 1344a 65864i bk13: 1344a 66002i bk14: 1344a 66346i bk15: 1344a 65228i 
dram_util_bins: 0 0 0 0 0 0 0 0 0 0
dram_eff_bins: 0 0 0 0 0 0 0 0 0 0
mrqq: max=16 avg=1.75694
Memory Partition 3: 
Cache L2_bank_006:
MSHR contents

Cache L2_bank_007:
MSHR contents

In Dram Latency Queue (total = 0): 
DRAM[3]: 16 bks, busW=4 BL=8 CL=12, tRRD=2 tCCD=6, tRCD=12 tRAS=28 tRP=12 tRC=40
n_cmd=88958 n_nop=50900 n_act=8112 n_pre=8096 n_req=10925 n_rd=21850 n_write=0 bw_util=0.4912
n_activity=80313 dram_eff=0.5441
bk0: 1346a 66999i bk1: 1344a 67475i bk2: 1344a 65778i bk3: 1344a 65959i bk4: 1364a 66021i bk5: 1368a 65498i bk6: 1408a 64963i bk7: 1408a 64903i bk8: 1408a 66788i bk9: 1408a 66189i bk10: 1368a 66404i bk11: 1364a 66440i bk12: 1344a 66402i bk13: 1344a 66465i bk14: 1344a 65679i bk15: 1344a 65680i 
dram_util_bins: 0 0 0 0 0 0 0 0 0 0
dram_eff_bins: 0 0 0 0 0 0 0 0 0 0
mrqq: max=16 avg=1.53424
Memory Partition 4: 
Cache L2_bank_008:
MSHR contents

Cache L2_bank_009:
MSHR contents

In Dram Latency Queue (total = 0): 
DRAM[4]: 16 bks, busW=4 BL=8 CL=12, tRRD=2 tCCD=6, tRCD=12 tRAS=28 tRP=12 tRC=40
n_cmd=88958 n_nop=50771 n_act=8172 n_pre=8156 n_req=10932 n_rd=21850 n_write=9 bw_util=0.4914
n_activity=80877 dram_eff=0.5405
bk0: 1344a 67099i bk1: 1344a 66202i bk2: 1344a 65883i bk3: 1344a 66802i bk4: 1364a 65986i bk5: 1368a 66778i bk6: 1408a 63966i bk7: 1408a 64514i bk8: 1408a 66246i bk9: 1408a 66048i bk10: 1370a 64818i bk11: 1364a 65941i bk12: 1344a 65620i bk13: 1344a 66386i bk14: 1344a 65698i bk15: 1344a 65944i 
dram_util_bins: 0 0 0 0 0 0 0 0 0 0
dram_eff_bins: 0 0 0 0 0 0 0 0 0 0
mrqq: max=16 avg=1.56363
Memory Partition 5: 
Cache L2_bank_010:
MSHR contents

Cache L2_bank_011:
MSHR contents

In Dram Latency Queue (total = 0): 
DRAM[5]: 16 bks, busW=4 BL=8 CL=12, tRRD=2 tCCD=6, tRCD=12 tRAS=28 tRP=12 tRC=40
n_cmd=88958 n_nop=50795 n_act=8163 n_pre=8147 n_req=10928 n_rd=21848 n_write=5 bw_util=0.4913
n_activity=80692 dram_eff=0.5416
bk0: 1344a 66518i bk1: 1344a 66726i bk2: 1344a 66129i bk3: 1344a 65843i bk4: 1364a 65458i bk5: 1368a 65375i bk6: 1408a 65252i bk7: 1408a 64789i bk8: 1408a 66062i bk9: 1408a 66310i bk10: 1368a 66145i bk11: 1364a 66524i bk12: 1344a 66178i bk13: 1344a 66423i bk14: 1344a 66300i bk15: 1344a 65778i 
dram_util_bins: 0 0 0 0 0 0 0 0 0 0
dram_eff_bins: 0 0 0 0 0 0 0 0 0 0
mrqq: max=16 avg=1.5718

========= L2 cache stats =========
L2_cache_bank[0]: Access = 5507, Miss = 5465, Miss_rate = 0.992, Pending_hits = 9, Reservation_fails = 4418
L2_cache_bank[1]: Access = 5524, Miss = 5464, Miss_rate = 0.989, Pending_hits = 0, Reservation_fails = 1631
L2_cache_bank[2]: Access = 5492, Miss = 5465, Miss_rate = 0.995, Pending_hits = 9, Reservation_fails = 3974
L2_cache_bank[3]: Access = 5524, Miss = 5462, Miss_rate = 0.989, Pending_hits = 1, Reservation_fails = 2419
L2_cache_bank[4]: Access = 5492, Miss = 5464, Miss_rate = 0.995, Pending_hits = 0, Reservation_fails = 2221
L2_cache_bank[5]: Access = 5462, Miss = 5462, Miss_rate = 1.000, Pending_hits = 0, Reservation_fails = 3150
L2_cache_bank[6]: Access = 5477, Miss = 5463, Miss_rate = 0.997, Pending_hits = 1, Reservation_fails = 2093
L2_cache_bank[7]: Access = 5462, Miss = 5462, Miss_rate = 1.000, Pending_hits = 0, Reservation_fails = 2582
L2_cache_bank[8]: Access = 5524, Miss = 5463, Miss_rate = 0.989, Pending_hits = 2, Reservation_fails = 2595
L2_cache_bank[9]: Access = 5462, Miss = 5462, Miss_rate = 1.000, Pending_hits = 0, Reservation_fails = 1957
L2_cache_bank[10]: Access = 5524, Miss = 5462, Miss_rate = 0.989, Pending_hits = 1, Reservation_fails = 2561
L2_cache_bank[11]: Access = 5462, Miss = 5462, Miss_rate = 1.000, Pending_hits = 0, Reservation_fails = 2460
L2_total_cache_accesses = 65912
L2_total_cache_misses = 65556
L2_total_cache_miss_rate = 0.9946
L2_total_cache_pending_hits = 23
L2_total_cache_reservation_fails = 32061
L2_total_cache_breakdown:
	L2_cache_stats_breakdown[GLOBAL_ACC_R][MISS] = 65536
	L2_cache_stats_breakdown[GLOBAL_ACC_R][RESERVATION_FAIL] = 31323
	L2_cache_stats_breakdown[CONST_ACC_R][HIT] = 11
	L2_cache_stats_breakdown[CONST_ACC_R][HIT_RESERVED] = 3
	L2_cache_stats_breakdown[CONST_ACC_R][MISS] = 1
	L2_cache_stats_breakdown[CONST_ACC_R][RESERVATION_FAIL] = 108
	L2_cache_stats_breakdown[GLOBAL_ACC_W][HIT] = 241
	L2_cache_stats_breakdown[GLOBAL_ACC_W][HIT_RESERVED] = 4
	L2_cache_stats_breakdown[GLOBAL_ACC_W][MISS] = 11
	L2_cache_stats_breakdown[INST_ACC_R][HIT] = 81
	L2_cache_stats_breakdown[INST_ACC_R][HIT_RESERVED] = 16
	L2_cache_stats_breakdown[INST_ACC_R][MISS] = 8
	L2_cache_stats_breakdown[INST_ACC_R][RESERVATION_FAIL] = 630
L2_cache_data_port_util = 0.001
L2_cache_fill_port_util = 0.324

icnt_total_pkts_mem_to_simt=328506
icnt_total_pkts_simt_to_mem=66168
LD_mem_lat_dist  0 0 0 0 0 0 0 0 0 0 0 0 0 0 0 0 0 0 0 0 0 0 0 0 0 0 0
ST_mem_lat_dist  0 0 0 0 0 0 0 0 0 0 0 0 0 0 0 0 0 0 0 0 0 0 0 0 0 0 0
----------------------------Interconnect-DETAILS--------------------------------
Class 0:
Packet latency average = 17.8006
	minimum = 6
	maximum = 368
Network latency average = 14.5773
	minimum = 6
	maximum = 362
Slowest packet = 3403
Flit latency average = 14.1418
	minimum = 6
	maximum = 362
Slowest flit = 9381
Fragmentation average = 0
	minimum = 0
	maximum = 0
Injected packet rate average = 0.0724463
	minimum = 0.0611339 (at node 1)
	maximum = 0.081967 (at node 16)
Accepted packet rate average = 0.0724463
	minimum = 0.0611339 (at node 1)
	maximum = 0.081967 (at node 16)
Injected flit rate average = 0.2169
	minimum = 0.0613714 (at node 1)
	maximum = 0.408128 (at node 15)
Accepted flit rate average= 0.2169
	minimum = 0.081047 (at node 20)
	maximum = 0.342706 (at node 0)
Injected packet length average = 2.99395
Accepted packet length average = 2.99395
Total in-flight flits = 0 (0 measured)
====== Overall Traffic Statistics ======
====== Traffic class 0 ======
Packet latency average = 17.8006 (1 samples)
	minimum = 6 (1 samples)
	maximum = 368 (1 samples)
Network latency average = 14.5773 (1 samples)
	minimum = 6 (1 samples)
	maximum = 362 (1 samples)
Flit latency average = 14.1418 (1 samples)
	minimum = 6 (1 samples)
	maximum = 362 (1 samples)
Fragmentation average = 0 (1 samples)
	minimum = 0 (1 samples)
	maximum = 0 (1 samples)
Injected packet rate average = 0.0724463 (1 samples)
	minimum = 0.0611339 (1 samples)
	maximum = 0.081967 (1 samples)
Accepted packet rate average = 0.0724463 (1 samples)
	minimum = 0.0611339 (1 samples)
	maximum = 0.081967 (1 samples)
Injected flit rate average = 0.2169 (1 samples)
	minimum = 0.0613714 (1 samples)
	maximum = 0.408128 (1 samples)
Accepted flit rate average = 0.2169 (1 samples)
	minimum = 0.081047 (1 samples)
	maximum = 0.342706 (1 samples)
Injected packet size average = 2.99395 (1 samples)
Accepted packet size average = 2.99395 (1 samples)
Hops average = 1 (1 samples)
----------------------------END-of-Interconnect-DETAILS-------------------------


gpgpu_simulation_time = 0 days, 0 hrs, 1 min, 8 sec (68 sec)
gpgpu_simulation_rate = 359435 (inst/sec)
gpgpu_simulation_rate = 991 (cycle/sec)
GPGPU-Sim: synchronize waiting for inactive GPU simulation
GPGPU-Sim API: Stream Manager State
GPGPU-Sim: detected inactive GPU simulation thread
GPU time: 67752.992188 msecs.
Reading back GPU result...
Checking GPU results...
..running CPU scalar product calculation
...comparing the results
L1 error: 3.070748E-08
TEST PASSED
Shutting down...
