

        *** GPGPU-Sim Simulator Version 3.2.2  [build 0] ***


GPGPU-Sim PTX: simulation mode 0 (can change with PTX_SIM_MODE_FUNC environment variable:
               1=functional simulation only, 0=detailed performance simulator)
GPGPU-Sim: Configuration options:

-network_mode                           1 # Interconnection network mode
-inter_config_file   config_fermi_islip.icnt # Interconnection network config file
-gpgpu_ptx_use_cuobjdump                    1 # Use cuobjdump to extract ptx and sass from binaries
-gpgpu_experimental_lib_support                    0 # Try to extract code from cuda libraries [Broken because of unknown cudaGetExportTable]
-gpgpu_ptx_convert_to_ptxplus                    0 # Convert SASS (native ISA) to ptxplus and run ptxplus
-gpgpu_ptx_force_max_capability                   20 # Force maximum compute capability
-gpgpu_ptx_inst_debug_to_file                    0 # Dump executed instructions' debug information to file
-gpgpu_ptx_inst_debug_file       inst_debug.txt # Executed instructions' debug output file
-gpgpu_ptx_inst_debug_thread_uid                    1 # Thread UID for executed instructions' debug output
-gpgpu_simd_model                       1 # 1 = post-dominator
-gpgpu_shader_core_pipeline              1536:32 # shader core pipeline config, i.e., {<nthread>:<warpsize>}
-gpgpu_tex_cache:l1  4:128:24,L:R:m:N:L,F:128:4,128:2 # per-shader L1 texture cache  (READ-ONLY) config  {<nsets>:<bsize>:<assoc>,<rep>:<wr>:<alloc>:<wr_alloc>,<mshr>:<N>:<merge>,<mq>:<rf>}
-gpgpu_const_cache:l1 64:64:2,L:R:f:N:L,A:2:32,4 # per-shader L1 constant memory cache  (READ-ONLY) config  {<nsets>:<bsize>:<assoc>,<rep>:<wr>:<alloc>:<wr_alloc>,<mshr>:<N>:<merge>,<mq>} 
-gpgpu_cache:il1     4:128:4,L:R:f:N:L,A:2:32,4 # shader L1 instruction cache config  {<nsets>:<bsize>:<assoc>,<rep>:<wr>:<alloc>:<wr_alloc>,<mshr>:<N>:<merge>,<mq>} 
-gpgpu_cache:dl1     32:128:8,L:L:m:N:H,A:32:8,8 # per-shader L1 data cache config  {<nsets>:<bsize>:<assoc>,<rep>:<wr>:<alloc>:<wr_alloc>,<mshr>:<N>:<merge>,<mq> | none}
-gpgpu_cache:dl1PrefL1                 none # per-shader L1 data cache config  {<nsets>:<bsize>:<assoc>,<rep>:<wr>:<alloc>:<wr_alloc>,<mshr>:<N>:<merge>,<mq> | none}
-gpgpu_cache:dl1PreShared                 none # per-shader L1 data cache config  {<nsets>:<bsize>:<assoc>,<rep>:<wr>:<alloc>:<wr_alloc>,<mshr>:<N>:<merge>,<mq> | none}
-gmem_skip_L1D                          0 # global memory access skip L1D cache (implements -Xptxas -dlcm=cg, default=no skip)
-gpgpu_perfect_mem                      0 # enable perfect memory mode (no cache miss)
-n_regfile_gating_group                    4 # group of lanes that should be read/written together)
-gpgpu_clock_gated_reg_file                    0 # enable clock gated reg file for power calculations
-gpgpu_clock_gated_lanes                    0 # enable clock gated lanes for power calculations
-gpgpu_shader_registers                32768 # Number of registers per shader core. Limits number of concurrent CTAs. (default 8192)
-gpgpu_shader_cta                       8 # Maximum number of concurrent CTAs in shader (default 8)
-gpgpu_num_cta_barriers                   16 # Maximum number of named barriers per CTA (default 16)
-gpgpu_n_clusters                      15 # number of processing clusters
-gpgpu_n_cores_per_cluster                    1 # number of simd cores per cluster
-gpgpu_n_cluster_ejection_buffer_size                    8 # number of packets in ejection buffer
-gpgpu_n_ldst_response_buffer_size                    2 # number of response packets in ld/st unit ejection buffer
-gpgpu_shmem_size                   16384 # Size of shared memory per shader core (default 16kB)
-gpgpu_shmem_size                   49152 # Size of shared memory per shader core (default 16kB)
-gpgpu_shmem_size_PrefL1                16384 # Size of shared memory per shader core (default 16kB)
-gpgpu_shmem_size_PrefShared                16384 # Size of shared memory per shader core (default 16kB)
-gpgpu_shmem_num_banks                   32 # Number of banks in the shared memory in each shader core (default 16)
-gpgpu_shmem_limited_broadcast                    0 # Limit shared memory to do one broadcast per cycle (default on)
-gpgpu_shmem_warp_parts                    1 # Number of portions a warp is divided into for shared memory bank conflict check 
-gpgpu_warpdistro_shader                   -1 # Specify which shader core to collect the warp size distribution from
-gpgpu_warp_issue_shader                    0 # Specify which shader core to collect the warp issue distribution from
-gpgpu_local_mem_map                    1 # Mapping from local memory space address to simulated GPU physical address space (default = enabled)
-gpgpu_num_reg_banks                   16 # Number of register banks (default = 8)
-gpgpu_reg_bank_use_warp_id                    0 # Use warp ID in mapping registers to banks (default = off)
-gpgpu_operand_collector_num_units_sp                    6 # number of collector units (default = 4)
-gpgpu_operand_collector_num_units_sfu                    8 # number of collector units (default = 4)
-gpgpu_operand_collector_num_units_mem                    2 # number of collector units (default = 2)
-gpgpu_operand_collector_num_units_gen                    0 # number of collector units (default = 0)
-gpgpu_operand_collector_num_in_ports_sp                    2 # number of collector unit in ports (default = 1)
-gpgpu_operand_collector_num_in_ports_sfu                    1 # number of collector unit in ports (default = 1)
-gpgpu_operand_collector_num_in_ports_mem                    1 # number of collector unit in ports (default = 1)
-gpgpu_operand_collector_num_in_ports_gen                    0 # number of collector unit in ports (default = 0)
-gpgpu_operand_collector_num_out_ports_sp                    2 # number of collector unit in ports (default = 1)
-gpgpu_operand_collector_num_out_ports_sfu                    1 # number of collector unit in ports (default = 1)
-gpgpu_operand_collector_num_out_ports_mem                    1 # number of collector unit in ports (default = 1)
-gpgpu_operand_collector_num_out_ports_gen                    0 # number of collector unit in ports (default = 0)
-gpgpu_coalesce_arch                   13 # Coalescing arch (default = 13, anything else is off for now)
-gpgpu_num_sched_per_core                    2 # Number of warp schedulers per core
-gpgpu_max_insn_issue_per_warp                    1 # Max number of instructions that can be issued per warp in one cycle by scheduler
-gpgpu_simt_core_sim_order                    1 # Select the simulation order of cores in a cluster (0=Fix, 1=Round-Robin)
-gpgpu_pipeline_widths        2,1,1,2,1,1,2 # Pipeline widths ID_OC_SP,ID_OC_SFU,ID_OC_MEM,OC_EX_SP,OC_EX_SFU,OC_EX_MEM,EX_WB
-gpgpu_num_sp_units                     2 # Number of SP units (default=1)
-gpgpu_num_sfu_units                    1 # Number of SF units (default=1)
-gpgpu_num_mem_units                    1 # Number if ldst units (default=1) WARNING: not hooked up to anything
-gpgpu_scheduler                      gto # Scheduler configuration: < lrr | gto | two_level_active > If two_level_active:<num_active_warps>:<inner_prioritization>:<outer_prioritization>For complete list of prioritization values see shader.h enum scheduler_prioritization_typeDefault: gto
-gpgpu_dram_scheduler                    1 # 0 = fifo, 1 = FR-FCFS (defaul)
-gpgpu_dram_partition_queues              8:8:8:8 # i2$:$2d:d2$:$2i
-l2_ideal                               0 # Use a ideal L2 cache that always hit
-gpgpu_cache:dl2     64:128:8,L:B:m:W:L,A:32:4,4:0,32 # unified banked L2 data cache config  {<nsets>:<bsize>:<assoc>,<rep>:<wr>:<alloc>:<wr_alloc>,<mshr>:<N>:<merge>,<mq>}
-gpgpu_cache:dl2_texture_only                    0 # L2 cache used for texture only
-gpgpu_n_mem                            6 # number of memory modules (e.g. memory controllers) in gpu
-gpgpu_n_sub_partition_per_mchannel                    2 # number of memory subpartition in each memory module
-gpgpu_n_mem_per_ctrlr                    2 # number of memory chips per memory controller
-gpgpu_memlatency_stat                   14 # track and display latency statistics 0x2 enables MC, 0x4 enables queue logs
-gpgpu_frfcfs_dram_sched_queue_size                   16 # 0 = unlimited (default); # entries per chip
-gpgpu_dram_return_queue_size                  116 # 0 = unlimited (default); # entries per chip
-gpgpu_dram_buswidth                    4 # default = 4 bytes (8 bytes per cycle at DDR)
-gpgpu_dram_burst_length                    8 # Burst length of each DRAM request (default = 4 data bus cycle)
-dram_data_command_freq_ratio                    4 # Frequency ratio between DRAM data bus and command bus (default = 2 times, i.e. DDR)
-gpgpu_dram_timing_opt nbk=16:CCD=2:RRD=6:RCD=12:RAS=28:RP=12:RC=40: CL=12:WL=4:CDLR=5:WR=12:nbkgrp=4:CCDL=3:RTPL=2 # DRAM timing parameters = {nbk:tCCD:tRRD:tRCD:tRAS:tRP:tRC:CL:WL:tCDLR:tWR:nbkgrp:tCCDL:tRTPL}
-rop_latency                          120 # ROP queue latency (default 85)
-dram_latency                         100 # DRAM latency (default 30)
-gpgpu_mem_addr_mapping dramid@8;00000000.00000000.00000000.00000000.0000RRRR.RRRRRRRR.BBBCCCCB.CCSSSSSS # mapping memory address to dram model {dramid@<start bit>;<memory address map>}
-gpgpu_mem_addr_test                    0 # run sweep test to check address mapping for aliased address
-gpgpu_mem_address_mask                    1 # 0 = old addressing mask, 1 = new addressing mask, 2 = new add. mask + flipped bank sel and chip sel bits
-gpuwattch_xml_file  gpuwattch_gtx480.xml # GPUWattch XML file
-power_simulation_enabled                    1 # Turn on power simulator (1=On, 0=Off)
-power_per_cycle_dump                    0 # Dump detailed power output each cycle
-power_trace_enabled                    0 # produce a file for the power trace (1=On, 0=Off)
-power_trace_zlevel                     6 # Compression level of the power trace output log (0=no comp, 9=highest)
-steady_power_levels_enabled                    0 # produce a file for the steady power levels (1=On, 0=Off)
-steady_state_definition                  8:4 # allowed deviation:number of samples
-gpgpu_max_cycle                        0 # terminates gpu simulation early (0 = no limit)
-gpgpu_max_insn                         0 # terminates gpu simulation early (0 = no limit)
-gpgpu_max_cta                          0 # terminates gpu simulation early (0 = no limit)
-gpgpu_runtime_stat                   500 # display runtime statistics such as dram utilization {<freq>:<flag>}
-liveness_message_freq                    1 # Minimum number of seconds between simulation liveness messages (0 = always print)
-gpgpu_flush_l1_cache                    0 # Flush L1 cache at the end of each kernel call
-gpgpu_flush_l2_cache                    0 # Flush L2 cache at the end of each kernel call
-gpgpu_deadlock_detect                    1 # Stop the simulation at deadlock (1=on (default), 0=off)
-gpgpu_ptx_instruction_classification                    0 # if enabled will classify ptx instruction types per kernel (Max 255 kernels now)
-gpgpu_ptx_sim_mode                     0 # Select between Performance (default) or Functional simulation (1)
-gpgpu_clock_domains 700.0:700.0:700.0:924.0 # Clock Domain Frequencies in MhZ {<Core Clock>:<ICNT Clock>:<L2 Clock>:<DRAM Clock>}
-gpgpu_max_concurrent_kernel                    8 # maximum kernels that can run concurrently on GPU
-gpgpu_cflog_interval                    0 # Interval between each snapshot in control flow logger
-visualizer_enabled                     0 # Turn on visualizer output (1=On, 0=Off)
-visualizer_outputfile                 NULL # Specifies the output log file for visualizer
-visualizer_zlevel                      6 # Compression level of the visualizer output log (0=no comp, 9=highest)
-trace_enabled                          0 # Turn on traces
-trace_components                    none # comma seperated list of traces to enable. Complete list found in trace_streams.tup. Default none
-trace_sampling_core                    0 # The core which is printed using CORE_DPRINTF. Default 0
-trace_sampling_memory_partition                   -1 # The memory partition which is printed using MEMPART_DPRINTF. Default -1 (i.e. all)
-enable_ptx_file_line_stats                    1 # Turn on PTX source line statistic profiling. (1 = On)
-ptx_line_stats_filename gpgpu_inst_stats.txt # Output file for PTX source line statistics.
-save_embedded_ptx                      0 # saves ptx files embedded in binary as <n>.ptx
-keep                                   0 # keep intermediate files created by GPGPU-Sim when interfacing with external programs
-gpgpu_ptx_save_converted_ptxplus                    0 # Saved converted ptxplus to a file
-ptx_opcode_latency_int         4,13,4,5,145 # Opcode latencies for integers <ADD,MAX,MUL,MAD,DIV>Default 1,1,19,25,145
-ptx_opcode_latency_fp          4,13,4,5,39 # Opcode latencies for single precision floating points <ADD,MAX,MUL,MAD,DIV>Default 1,1,1,1,30
-ptx_opcode_latency_dp         8,19,8,8,330 # Opcode latencies for double precision floating points <ADD,MAX,MUL,MAD,DIV>Default 8,8,8,8,335
-ptx_opcode_initiation_int            1,2,2,1,8 # Opcode initiation intervals for integers <ADD,MAX,MUL,MAD,DIV>Default 1,1,4,4,32
-ptx_opcode_initiation_fp            1,2,1,1,4 # Opcode initiation intervals for single precision floating points <ADD,MAX,MUL,MAD,DIV>Default 1,1,1,1,5
-ptx_opcode_initiation_dp         8,16,8,8,130 # Opcode initiation intervals for double precision floating points <ADD,MAX,MUL,MAD,DIV>Default 8,8,8,8,130
DRAM Timing Options:
nbk                                    16 # number of banks
CCD                                     2 # column to column delay
RRD                                     6 # minimal delay between activation of rows in different banks
RCD                                    12 # row to column delay
RAS                                    28 # time needed to activate row
RP                                     12 # time needed to precharge (deactivate) row
RC                                     40 # row cycle time
CDLR                                    5 # switching from write to read (changes tWTR)
WR                                     12 # last data-in to row precharge
CL                                     12 # CAS latency
WL                                      4 # Write latency
nbkgrp                                  4 # number of bank groups
CCDL                                    3 # column to column delay between accesses to different bank groups
RTPL                                    2 # read to precharge delay between accesses to different bank groups
Total number of memory sub partition = 12
addr_dec_mask[CHIP]  = 0000000000000000 	high:64 low:0
addr_dec_mask[BK]    = 000000000000e100 	high:16 low:8
addr_dec_mask[ROW]   = 000000000fff0000 	high:28 low:16
addr_dec_mask[COL]   = 0000000000001eff 	high:13 low:0
addr_dec_mask[BURST] = 000000000000003f 	high:6 low:0
sub_partition_id_mask = 0000000000000100
GPGPU-Sim uArch: clock freqs: 700000000.000000:700000000.000000:700000000.000000:924000000.000000
GPGPU-Sim uArch: clock periods: 0.00000000142857142857:0.00000000142857142857:0.00000000142857142857:0.00000000108225108225
*** Initializing Memory Statistics ***
GPGPU-Sim uArch: interconnect node map (shaderID+MemID to icntID)
GPGPU-Sim uArch: Memory nodes ID start from index: 15
GPGPU-Sim uArch:    0   1   2   3   4
GPGPU-Sim uArch:    5   6   7   8   9
GPGPU-Sim uArch:   10  11  12  13  14
GPGPU-Sim uArch:   15  16  17  18  19
GPGPU-Sim uArch:   20  21  22  23  24
GPGPU-Sim uArch:   25  26
GPGPU-Sim uArch: interconnect node reverse map (icntID to shaderID+MemID)
GPGPU-Sim uArch: Memory nodes start from ID: 15
GPGPU-Sim uArch:    0   1   2   3   4
GPGPU-Sim uArch:    5   6   7   8   9
GPGPU-Sim uArch:   10  11  12  13  14
GPGPU-Sim uArch:   15  16  17  18  19
GPGPU-Sim uArch:   20  21  22  23  24
GPGPU-Sim uArch:   25  26
db8fd71b22e5f9e87a0df9a155b78fdf  /home/scratch/adwait/applications/benchmarks/CUDA/KMN/gpgpu_ptx_sim__KMN
GPGPU-Sim uArch: performance model initialization complete.
GPGPU-Sim PTX: __cudaRegisterFatBinary, fat_cubin_handle = 1, filename=kmeans_cuda.cu
self exe links to: /home/scratch/adwait/applications/benchmarks/CUDA/KMN/gpgpu_ptx_sim__KMN
Running md5sum using "md5sum /home/scratch/adwait/applications/benchmarks/CUDA/KMN/gpgpu_ptx_sim__KMN "
Running cuobjdump using "$CUDA_INSTALL_PATH/bin/cuobjdump -ptx -elf -sass /home/scratch/adwait/applications/benchmarks/CUDA/KMN/gpgpu_ptx_sim__KMN > _cuobjdump_complete_output_1QUkt0"
Parsing file _cuobjdump_complete_output_1QUkt0
######### cuobjdump parser ########
## Adding new section ELF
Adding arch: sm_20
Adding identifier: kmeans_cuda.cu
## Adding new section PTX
Adding ptx filename: _cuobjdump_1.ptx
Adding arch: sm_20
Adding identifier: kmeans_cuda.cu
Done parsing!!!
GPGPU-Sim PTX: __cudaRegisterFunction _Z11kmeansPointPfiiiPiS_S_S0_ : hostFun 0x0x402c28, fat_cubin_handle = 1
GPGPU-Sim PTX: instruction assembly for function '_Z14invert_mappingPfS_ii'...   done.
GPGPU-Sim PTX: finding reconvergence points for '_Z14invert_mappingPfS_ii'...
GPGPU-Sim PTX: Finding dominators for '_Z14invert_mappingPfS_ii'...
GPGPU-Sim PTX: Finding immediate dominators for '_Z14invert_mappingPfS_ii'...
GPGPU-Sim PTX: Finding postdominators for '_Z14invert_mappingPfS_ii'...
GPGPU-Sim PTX: Finding immediate postdominators for '_Z14invert_mappingPfS_ii'...
GPGPU-Sim PTX: pre-decoding instructions for '_Z14invert_mappingPfS_ii'...
GPGPU-Sim PTX: reconvergence points for _Z14invert_mappingPfS_ii...
GPGPU-Sim PTX:  1 (potential) branch divergence @  PC=0x038 (_1.ptx:70) @%p1 bra $Lt_0_2050;
GPGPU-Sim PTX:    immediate post dominator      @  PC=0x110 (_1.ptx:103) exit;
GPGPU-Sim PTX:  2 (potential) branch divergence @  PC=0x058 (_1.ptx:74) @%p2 bra $Lt_0_2562;
GPGPU-Sim PTX:    immediate post dominator      @  PC=0x110 (_1.ptx:103) exit;
GPGPU-Sim PTX:  3 (potential) branch divergence @  PC=0x108 (_1.ptx:99) @%p3 bra $Lt_0_3074;
GPGPU-Sim PTX:    immediate post dominator      @  PC=0x110 (_1.ptx:103) exit;
GPGPU-Sim PTX: ... end of reconvergence points for _Z14invert_mappingPfS_ii
GPGPU-Sim PTX: ... done pre-decoding instructions for '_Z14invert_mappingPfS_ii'.
GPGPU-Sim PTX: instruction assembly for function '_Z11kmeansPointPfiiiPiS_S_S0_'...   done.
GPGPU-Sim PTX: finding reconvergence points for '_Z11kmeansPointPfiiiPiS_S_S0_'...
GPGPU-Sim PTX: Finding dominators for '_Z11kmeansPointPfiiiPiS_S_S0_'...
GPGPU-Sim PTX: Finding immediate dominators for '_Z11kmeansPointPfiiiPiS_S_S0_'...
GPGPU-Sim PTX: Finding postdominators for '_Z11kmeansPointPfiiiPiS_S_S0_'...
GPGPU-Sim PTX: Finding immediate postdominators for '_Z11kmeansPointPfiiiPiS_S_S0_'...
GPGPU-Sim PTX: pre-decoding instructions for '_Z11kmeansPointPfiiiPiS_S_S0_'...
GPGPU-Sim PTX: reconvergence points for _Z11kmeansPointPfiiiPiS_S_S0_...
GPGPU-Sim PTX:  1 (potential) branch divergence @  PC=0x180 (_1.ptx:136) @!%p1 bra $Lt_1_4866;
GPGPU-Sim PTX:    immediate post dominator      @  PC=0x320 (_1.ptx:202) @!%p1 bra $Lt_1_7682;
GPGPU-Sim PTX:  2 (potential) branch divergence @  PC=0x1a0 (_1.ptx:140) @%p2 bra $Lt_1_8194;
GPGPU-Sim PTX:    immediate post dominator      @  PC=0x320 (_1.ptx:202) @!%p1 bra $Lt_1_7682;
GPGPU-Sim PTX:  3 (potential) branch divergence @  PC=0x1e8 (_1.ptx:151) @!%p3 bra $Lt_1_8450;
GPGPU-Sim PTX:    immediate post dominator      @  PC=0x2c8 (_1.ptx:185) setp.lt.f32 %p5, %f2, %f1;
GPGPU-Sim PTX:  4 (potential) branch divergence @  PC=0x2b0 (_1.ptx:180) @%p4 bra $Lt_1_6402;
GPGPU-Sim PTX:    immediate post dominator      @  PC=0x2b8 (_1.ptx:181) bra.uni $Lt_1_5890;
GPGPU-Sim PTX:  5 (potential) branch divergence @  PC=0x2b8 (_1.ptx:181) bra.uni $Lt_1_5890;
GPGPU-Sim PTX:    immediate post dominator      @  PC=0x2c8 (_1.ptx:185) setp.lt.f32 %p5, %f2, %f1;
GPGPU-Sim PTX:  6 (potential) branch divergence @  PC=0x2d0 (_1.ptx:186) @!%p5 bra $Lt_1_6914;
GPGPU-Sim PTX:    immediate post dominator      @  PC=0x2e8 (_1.ptx:192) add.s32 %r18, %r18, 1;
GPGPU-Sim PTX:  7 (potential) branch divergence @  PC=0x2f8 (_1.ptx:194) @%p6 bra $Lt_1_5634;
GPGPU-Sim PTX:    immediate post dominator      @  PC=0x300 (_1.ptx:195) bra.uni $Lt_1_4610;
GPGPU-Sim PTX:  8 (potential) branch divergence @  PC=0x300 (_1.ptx:195) bra.uni $Lt_1_4610;
GPGPU-Sim PTX:    immediate post dominator      @  PC=0x320 (_1.ptx:202) @!%p1 bra $Lt_1_7682;
GPGPU-Sim PTX:  9 (potential) branch divergence @  PC=0x310 (_1.ptx:198) bra.uni $Lt_1_4610;
GPGPU-Sim PTX:    immediate post dominator      @  PC=0x320 (_1.ptx:202) @!%p1 bra $Lt_1_7682;
GPGPU-Sim PTX: 10 (potential) branch divergence @  PC=0x320 (_1.ptx:202) @!%p1 bra $Lt_1_7682;
GPGPU-Sim PTX:    immediate post dominator      @  PC=0x350 (_1.ptx:211) exit;
GPGPU-Sim PTX: ... end of reconvergence points for _Z11kmeansPointPfiiiPiS_S_S0_
GPGPU-Sim PTX: ... done pre-decoding instructions for '_Z11kmeansPointPfiiiPiS_S_S0_'.
GPGPU-Sim PTX: allocating global region for "t_features" from 0x100 to 0x104 (global memory space)
GPGPU-Sim PTX: allocating global region for "t_features_flipped" from 0x104 to 0x108 (global memory space)
GPGPU-Sim PTX: allocating global region for "t_clusters" from 0x108 to 0x10c (global memory space)
GPGPU-Sim PTX: finished parsing EMBEDDED .ptx file _1.ptx
Adding _cuobjdump_1.ptx with cubin handle 1
GPGPU-Sim PTX: extracting embedded .ptx to temporary file "_ptx_qHIewJ"
Running: cat _ptx_qHIewJ | sed 's/.version 1.5/.version 1.4/' | sed 's/, texmode_independent//' | sed 's/\(\.extern \.const\[1\] .b8 \w\+\)\[\]/\1\[1\]/' | sed 's/const\[.\]/const\[0\]/g' > _ptx2_RnUrzs
GPGPU-Sim PTX: generating ptxinfo using "$CUDA_INSTALL_PATH/bin/ptxas --gpu-name=sm_20 -v _ptx2_RnUrzs --output-file  /dev/null 2> _ptx_qHIewJinfo"
GPGPU-Sim PTX: Kernel '_Z11kmeansPointPfiiiPiS_S_S0_' : regs=15, lmem=0, smem=0, cmem=88
GPGPU-Sim PTX: Kernel '_Z14invert_mappingPfS_ii' : regs=10, lmem=0, smem=0, cmem=56
GPGPU-Sim PTX: removing ptxinfo using "rm -f _ptx_qHIewJ _ptx2_RnUrzs _ptx_qHIewJinfo"
GPGPU-Sim PTX: loading globals with explicit initializers... 
GPGPU-Sim PTX: finished loading globals (0 bytes total).
GPGPU-Sim PTX: loading constants with explicit initializers...  done.
GPGPU-Sim PTX: __cudaRegisterFunction _Z14invert_mappingPfS_ii : hostFun 0x0x402a98, fat_cubin_handle = 1
GPGPU-Sim PTX: in __cudaRegisterTexture:
GPGPU-Sim PTX:   int dim = 1
GPGPU-Sim PTX:   int norm = 0
GPGPU-Sim PTX:   int ext = 0
GPGPU-Sim PTX:   Execution warning: Not finished implementing "void __cudaRegisterTexture(void**, const textureReference*, const void**, const char*, int, int, int)"
GPGPU-Sim PTX: in __cudaRegisterTexture:
GPGPU-Sim PTX:   int dim = 1
GPGPU-Sim PTX:   int norm = 0
GPGPU-Sim PTX:   int ext = 0
GPGPU-Sim PTX:   Execution warning: Not finished implementing "void __cudaRegisterTexture(void**, const textureReference*, const void**, const char*, int, int, int)"
GPGPU-Sim PTX: in __cudaRegisterTexture:
GPGPU-Sim PTX:   int dim = 1
GPGPU-Sim PTX:   int norm = 0
GPGPU-Sim PTX:   int ext = 0
GPGPU-Sim PTX:   Execution warning: Not finished implementing "void __cudaRegisterTexture(void**, const textureReference*, const void**, const char*, int, int, int)"

I/O completed

Number of objects: 28672
Number of features: 138

GPGPU-Sim PTX: cudaLaunch for 0x0x402c28 (mode=performance simulation) on stream 0
GPGPU-Sim PTX: pushing kernel '_Z11kmeansPointPfiiiPiS_S_S0_' to stream 0, gridDim= (11,11,1) blockDim = (256,1,1) 
kernel '_Z11kmeansPointPfiiiPiS_S_S0_' transfer to GPU hardware scheduler
GPGPU-Sim uArch: Shader 1 bind to kernel 1 '_Z11kmeansPointPfiiiPiS_S_S0_'
GPGPU-Sim uArch: CTA/core = 6, limited by: threads
GPGPU-Sim uArch: core:  1, cta: 0 initialized @(1,0)
GPGPU-Sim uArch: Shader 2 bind to kernel 1 '_Z11kmeansPointPfiiiPiS_S_S0_'
GPGPU-Sim uArch: core:  2, cta: 0 initialized @(1,0)
GPGPU-Sim uArch: Shader 3 bind to kernel 1 '_Z11kmeansPointPfiiiPiS_S_S0_'
GPGPU-Sim uArch: core:  3, cta: 0 initialized @(1,0)
GPGPU-Sim uArch: Shader 4 bind to kernel 1 '_Z11kmeansPointPfiiiPiS_S_S0_'
GPGPU-Sim uArch: core:  4, cta: 0 initialized @(1,0)
GPGPU-Sim uArch: Shader 5 bind to kernel 1 '_Z11kmeansPointPfiiiPiS_S_S0_'
GPGPU-Sim uArch: core:  5, cta: 0 initialized @(1,0)
GPGPU-Sim uArch: Shader 6 bind to kernel 1 '_Z11kmeansPointPfiiiPiS_S_S0_'
GPGPU-Sim uArch: core:  6, cta: 0 initialized @(1,0)
GPGPU-Sim uArch: Shader 7 bind to kernel 1 '_Z11kmeansPointPfiiiPiS_S_S0_'
GPGPU-Sim uArch: core:  7, cta: 0 initialized @(1,0)
GPGPU-Sim uArch: Shader 8 bind to kernel 1 '_Z11kmeansPointPfiiiPiS_S_S0_'
GPGPU-Sim uArch: core:  8, cta: 0 initialized @(1,0)
GPGPU-Sim uArch: Shader 9 bind to kernel 1 '_Z11kmeansPointPfiiiPiS_S_S0_'
GPGPU-Sim uArch: core:  9, cta: 0 initialized @(1,0)
GPGPU-Sim uArch: Shader 10 bind to kernel 1 '_Z11kmeansPointPfiiiPiS_S_S0_'
GPGPU-Sim uArch: core: 10, cta: 0 initialized @(1,0)
GPGPU-Sim uArch: Shader 11 bind to kernel 1 '_Z11kmeansPointPfiiiPiS_S_S0_'
GPGPU-Sim uArch: core: 11, cta: 0 initialized @(1,0)
GPGPU-Sim uArch: Shader 12 bind to kernel 1 '_Z11kmeansPointPfiiiPiS_S_S0_'
GPGPU-Sim uArch: core: 12, cta: 0 initialized @(1,0)
GPGPU-Sim uArch: Shader 13 bind to kernel 1 '_Z11kmeansPointPfiiiPiS_S_S0_'
GPGPU-Sim uArch: core: 13, cta: 0 initialized @(1,0)
GPGPU-Sim uArch: Shader 14 bind to kernel 1 '_Z11kmeansPointPfiiiPiS_S_S0_'
GPGPU-Sim uArch: core: 14, cta: 0 initialized @(1,0)
GPGPU-Sim uArch: Shader 0 bind to kernel 1 '_Z11kmeansPointPfiiiPiS_S_S0_'
GPGPU-Sim uArch: core:  0, cta: 0 initialized @(1,0)
GPGPU-Sim uArch: core:  1, cta: 1 initialized @(2,0)
GPGPU-Sim uArch: core:  2, cta: 1 initialized @(2,0)
GPGPU-Sim uArch: core:  3, cta: 1 initialized @(2,0)
GPGPU-Sim uArch: core:  4, cta: 1 initialized @(2,0)
GPGPU-Sim uArch: core:  5, cta: 1 initialized @(2,0)
GPGPU-Sim uArch: core:  6, cta: 1 initialized @(2,0)
GPGPU-Sim uArch: core:  7, cta: 1 initialized @(2,0)
GPGPU-Sim uArch: core:  8, cta: 1 initialized @(2,0)
GPGPU-Sim uArch: core:  9, cta: 1 initialized @(2,0)
GPGPU-Sim uArch: core: 10, cta: 1 initialized @(2,0)
GPGPU-Sim uArch: core: 11, cta: 1 initialized @(2,0)
GPGPU-Sim uArch: core: 12, cta: 1 initialized @(2,0)
GPGPU-Sim uArch: core: 13, cta: 1 initialized @(2,0)
GPGPU-Sim uArch: core: 14, cta: 1 initialized @(2,0)
GPGPU-Sim uArch: core:  0, cta: 1 initialized @(2,0)
GPGPU-Sim uArch: core:  1, cta: 2 initialized @(3,0)
GPGPU-Sim uArch: core:  2, cta: 2 initialized @(3,0)
GPGPU-Sim uArch: core:  3, cta: 2 initialized @(3,0)
GPGPU-Sim uArch: core:  4, cta: 2 initialized @(3,0)
GPGPU-Sim uArch: core:  5, cta: 2 initialized @(3,0)
GPGPU-Sim uArch: core:  6, cta: 2 initialized @(3,0)
GPGPU-Sim uArch: core:  7, cta: 2 initialized @(3,0)
GPGPU-Sim uArch: core:  8, cta: 2 initialized @(3,0)
GPGPU-Sim uArch: core:  9, cta: 2 initialized @(3,0)
GPGPU-Sim uArch: core: 10, cta: 2 initialized @(3,0)
GPGPU-Sim uArch: core: 11, cta: 2 initialized @(3,0)
GPGPU-Sim uArch: core: 12, cta: 2 initialized @(3,0)
GPGPU-Sim uArch: core: 13, cta: 2 initialized @(3,0)
GPGPU-Sim uArch: core: 14, cta: 2 initialized @(3,0)
GPGPU-Sim uArch: core:  0, cta: 2 initialized @(3,0)
GPGPU-Sim uArch: core:  1, cta: 3 initialized @(4,0)
GPGPU-Sim uArch: core:  2, cta: 3 initialized @(4,0)
GPGPU-Sim uArch: core:  3, cta: 3 initialized @(4,0)
GPGPU-Sim uArch: core:  4, cta: 3 initialized @(4,0)
GPGPU-Sim uArch: core:  5, cta: 3 initialized @(4,0)
GPGPU-Sim uArch: core:  6, cta: 3 initialized @(4,0)
GPGPU-Sim uArch: core:  7, cta: 3 initialized @(4,0)
GPGPU-Sim uArch: core:  8, cta: 3 initialized @(4,0)
GPGPU-Sim uArch: core:  9, cta: 3 initialized @(4,0)
GPGPU-Sim uArch: core: 10, cta: 3 initialized @(4,0)
GPGPU-Sim uArch: core: 11, cta: 3 initialized @(4,0)
GPGPU-Sim uArch: core: 12, cta: 3 initialized @(4,0)
GPGPU-Sim uArch: core: 13, cta: 3 initialized @(4,0)
GPGPU-Sim uArch: core: 14, cta: 3 initialized @(4,0)
GPGPU-Sim uArch: core:  0, cta: 3 initialized @(4,0)
GPGPU-Sim uArch: core:  1, cta: 4 initialized @(5,0)
GPGPU-Sim uArch: core:  2, cta: 4 initialized @(5,0)
GPGPU-Sim uArch: core:  3, cta: 4 initialized @(5,0)
GPGPU-Sim uArch: core:  4, cta: 4 initialized @(5,0)
GPGPU-Sim uArch: core:  5, cta: 4 initialized @(5,0)
GPGPU-Sim uArch: core:  6, cta: 4 initialized @(5,0)
GPGPU-Sim uArch: core:  7, cta: 4 initialized @(5,0)
GPGPU-Sim uArch: core:  8, cta: 4 initialized @(5,0)
GPGPU-Sim uArch: core:  9, cta: 4 initialized @(5,0)
GPGPU-Sim uArch: core: 10, cta: 4 initialized @(5,0)
GPGPU-Sim uArch: core: 11, cta: 4 initialized @(5,0)
GPGPU-Sim uArch: core: 12, cta: 4 initialized @(5,0)
GPGPU-Sim uArch: core: 13, cta: 4 initialized @(5,0)
GPGPU-Sim uArch: core: 14, cta: 4 initialized @(5,0)
GPGPU-Sim uArch: core:  0, cta: 4 initialized @(5,0)
GPGPU-Sim uArch: core:  1, cta: 5 initialized @(6,0)
GPGPU-Sim uArch: core:  2, cta: 5 initialized @(6,0)
GPGPU-Sim uArch: core:  3, cta: 5 initialized @(6,0)
GPGPU-Sim uArch: core:  4, cta: 5 initialized @(6,0)
GPGPU-Sim uArch: core:  5, cta: 5 initialized @(6,0)
GPGPU-Sim uArch: core:  6, cta: 5 initialized @(6,0)
GPGPU-Sim uArch: core:  7, cta: 5 initialized @(6,0)
GPGPU-Sim uArch: core:  8, cta: 5 initialized @(6,0)
GPGPU-Sim uArch: core:  9, cta: 5 initialized @(6,0)
GPGPU-Sim uArch: core: 10, cta: 5 initialized @(6,0)
GPGPU-Sim uArch: core: 11, cta: 5 initialized @(6,0)
GPGPU-Sim uArch: core: 12, cta: 5 initialized @(6,0)
GPGPU-Sim uArch: core: 13, cta: 5 initialized @(6,0)
GPGPU-Sim uArch: core: 14, cta: 5 initialized @(6,0)
GPGPU-Sim uArch: core:  0, cta: 5 initialized @(6,0)
GPGPU-Sim PTX: 100000 instructions simulated : ctaid=(7,7,0) tid=(159,0,0)
GPGPU-Sim uArch: cycles simulated: 500  inst.: 147456 (ipc=294.9) sim_rate=73728 (inst/sec) elapsed = 0:0:00:02 / Tue Apr 16 16:51:50 2019
GPGPU-Sim PTX: 200000 instructions simulated : ctaid=(2,2,0) tid=(223,0,0)
GPGPU-Sim PTX: 300000 instructions simulated : ctaid=(3,5,0) tid=(255,0,0)
GPGPU-Sim uArch: cycles simulated: 1000  inst.: 299520 (ipc=299.5) sim_rate=99840 (inst/sec) elapsed = 0:0:00:03 / Tue Apr 16 16:51:51 2019
GPGPU-Sim PTX: 400000 instructions simulated : ctaid=(9,7,0) tid=(191,0,0)
GPGPU-Sim PTX: 500000 instructions simulated : ctaid=(9,4,0) tid=(191,0,0)
GPGPU-Sim PTX: 600000 instructions simulated : ctaid=(3,5,0) tid=(223,0,0)
GPGPU-Sim uArch: cycles simulated: 1500  inst.: 615616 (ipc=410.4) sim_rate=123123 (inst/sec) elapsed = 0:0:00:05 / Tue Apr 16 16:51:53 2019
GPGPU-Sim PTX: 700000 instructions simulated : ctaid=(1,4,0) tid=(159,0,0)
GPGPU-Sim PTX: 800000 instructions simulated : ctaid=(4,5,0) tid=(31,0,0)
GPGPU-Sim PTX: 900000 instructions simulated : ctaid=(2,1,0) tid=(191,0,0)
GPGPU-Sim uArch: cycles simulated: 2500  inst.: 851488 (ipc=340.6) sim_rate=141914 (inst/sec) elapsed = 0:0:00:06 / Tue Apr 16 16:51:54 2019
GPGPU-Sim uArch: cycles simulated: 3500  inst.: 857024 (ipc=244.9) sim_rate=122432 (inst/sec) elapsed = 0:0:00:07 / Tue Apr 16 16:51:55 2019
GPGPU-Sim uArch: cycles simulated: 4500  inst.: 871904 (ipc=193.8) sim_rate=108988 (inst/sec) elapsed = 0:0:00:08 / Tue Apr 16 16:51:56 2019
GPGPU-Sim uArch: cycles simulated: 5000  inst.: 880544 (ipc=176.1) sim_rate=97838 (inst/sec) elapsed = 0:0:00:09 / Tue Apr 16 16:51:57 2019
GPGPU-Sim uArch: cycles simulated: 6000  inst.: 901024 (ipc=150.2) sim_rate=90102 (inst/sec) elapsed = 0:0:00:10 / Tue Apr 16 16:51:58 2019
GPGPU-Sim PTX: 1000000 instructions simulated : ctaid=(6,1,0) tid=(31,0,0)
GPGPU-Sim uArch: cycles simulated: 7000  inst.: 928192 (ipc=132.6) sim_rate=84381 (inst/sec) elapsed = 0:0:00:11 / Tue Apr 16 16:51:59 2019
GPGPU-Sim uArch: cycles simulated: 7500  inst.: 940672 (ipc=125.4) sim_rate=78389 (inst/sec) elapsed = 0:0:00:12 / Tue Apr 16 16:52:00 2019
GPGPU-Sim uArch: cycles simulated: 8500  inst.: 961504 (ipc=113.1) sim_rate=73961 (inst/sec) elapsed = 0:0:00:13 / Tue Apr 16 16:52:01 2019
GPGPU-Sim uArch: cycles simulated: 9000  inst.: 975072 (ipc=108.3) sim_rate=69648 (inst/sec) elapsed = 0:0:00:14 / Tue Apr 16 16:52:02 2019
GPGPU-Sim uArch: cycles simulated: 9500  inst.: 990816 (ipc=104.3) sim_rate=66054 (inst/sec) elapsed = 0:0:00:15 / Tue Apr 16 16:52:03 2019
GPGPU-Sim uArch: cycles simulated: 10500  inst.: 1023392 (ipc=97.5) sim_rate=63962 (inst/sec) elapsed = 0:0:00:16 / Tue Apr 16 16:52:04 2019
GPGPU-Sim PTX: 1100000 instructions simulated : ctaid=(0,0,0) tid=(159,0,0)
GPGPU-Sim uArch: cycles simulated: 11000  inst.: 1039008 (ipc=94.5) sim_rate=61118 (inst/sec) elapsed = 0:0:00:17 / Tue Apr 16 16:52:05 2019
GPGPU-Sim uArch: cycles simulated: 12000  inst.: 1067136 (ipc=88.9) sim_rate=59285 (inst/sec) elapsed = 0:0:00:18 / Tue Apr 16 16:52:06 2019
GPGPU-Sim uArch: cycles simulated: 12500  inst.: 1081152 (ipc=86.5) sim_rate=56902 (inst/sec) elapsed = 0:0:00:19 / Tue Apr 16 16:52:07 2019
GPGPU-Sim uArch: cycles simulated: 13500  inst.: 1113792 (ipc=82.5) sim_rate=55689 (inst/sec) elapsed = 0:0:00:20 / Tue Apr 16 16:52:08 2019
GPGPU-Sim PTX: 1200000 instructions simulated : ctaid=(2,1,0) tid=(31,0,0)
GPGPU-Sim uArch: cycles simulated: 14000  inst.: 1128896 (ipc=80.6) sim_rate=53756 (inst/sec) elapsed = 0:0:00:21 / Tue Apr 16 16:52:09 2019
GPGPU-Sim uArch: cycles simulated: 15000  inst.: 1156832 (ipc=77.1) sim_rate=52583 (inst/sec) elapsed = 0:0:00:22 / Tue Apr 16 16:52:10 2019
GPGPU-Sim uArch: cycles simulated: 15500  inst.: 1171776 (ipc=75.6) sim_rate=50946 (inst/sec) elapsed = 0:0:00:23 / Tue Apr 16 16:52:11 2019
GPGPU-Sim uArch: cycles simulated: 16500  inst.: 1200288 (ipc=72.7) sim_rate=50012 (inst/sec) elapsed = 0:0:00:24 / Tue Apr 16 16:52:12 2019
GPGPU-Sim uArch: cycles simulated: 17000  inst.: 1217184 (ipc=71.6) sim_rate=48687 (inst/sec) elapsed = 0:0:00:25 / Tue Apr 16 16:52:13 2019
GPGPU-Sim PTX: 1300000 instructions simulated : ctaid=(7,0,0) tid=(31,0,0)
GPGPU-Sim uArch: cycles simulated: 18000  inst.: 1246720 (ipc=69.3) sim_rate=47950 (inst/sec) elapsed = 0:0:00:26 / Tue Apr 16 16:52:14 2019
GPGPU-Sim uArch: cycles simulated: 18500  inst.: 1259840 (ipc=68.1) sim_rate=46660 (inst/sec) elapsed = 0:0:00:27 / Tue Apr 16 16:52:15 2019
GPGPU-Sim uArch: cycles simulated: 19500  inst.: 1293344 (ipc=66.3) sim_rate=46190 (inst/sec) elapsed = 0:0:00:28 / Tue Apr 16 16:52:16 2019
GPGPU-Sim uArch: cycles simulated: 20000  inst.: 1310496 (ipc=65.5) sim_rate=45189 (inst/sec) elapsed = 0:0:00:29 / Tue Apr 16 16:52:17 2019
GPGPU-Sim PTX: 1400000 instructions simulated : ctaid=(8,0,0) tid=(159,0,0)
GPGPU-Sim uArch: cycles simulated: 21000  inst.: 1345472 (ipc=64.1) sim_rate=44849 (inst/sec) elapsed = 0:0:00:30 / Tue Apr 16 16:52:18 2019
GPGPU-Sim uArch: cycles simulated: 21500  inst.: 1360096 (ipc=63.3) sim_rate=43874 (inst/sec) elapsed = 0:0:00:31 / Tue Apr 16 16:52:19 2019
GPGPU-Sim uArch: cycles simulated: 22000  inst.: 1372672 (ipc=62.4) sim_rate=42896 (inst/sec) elapsed = 0:0:00:32 / Tue Apr 16 16:52:20 2019
GPGPU-Sim uArch: cycles simulated: 23000  inst.: 1398304 (ipc=60.8) sim_rate=42372 (inst/sec) elapsed = 0:0:00:33 / Tue Apr 16 16:52:21 2019
GPGPU-Sim uArch: cycles simulated: 23500  inst.: 1416864 (ipc=60.3) sim_rate=41672 (inst/sec) elapsed = 0:0:00:34 / Tue Apr 16 16:52:22 2019
GPGPU-Sim PTX: 1500000 instructions simulated : ctaid=(9,0,0) tid=(223,0,0)
GPGPU-Sim uArch: cycles simulated: 24500  inst.: 1444544 (ipc=59.0) sim_rate=41272 (inst/sec) elapsed = 0:0:00:35 / Tue Apr 16 16:52:23 2019
GPGPU-Sim uArch: cycles simulated: 25000  inst.: 1460640 (ipc=58.4) sim_rate=40573 (inst/sec) elapsed = 0:0:00:36 / Tue Apr 16 16:52:24 2019
GPGPU-Sim uArch: cycles simulated: 25500  inst.: 1477984 (ipc=58.0) sim_rate=39945 (inst/sec) elapsed = 0:0:00:37 / Tue Apr 16 16:52:25 2019
GPGPU-Sim uArch: cycles simulated: 26500  inst.: 1510720 (ipc=57.0) sim_rate=39755 (inst/sec) elapsed = 0:0:00:38 / Tue Apr 16 16:52:26 2019
GPGPU-Sim uArch: cycles simulated: 27000  inst.: 1526016 (ipc=56.5) sim_rate=39128 (inst/sec) elapsed = 0:0:00:39 / Tue Apr 16 16:52:27 2019
GPGPU-Sim PTX: 1600000 instructions simulated : ctaid=(9,0,0) tid=(95,0,0)
GPGPU-Sim uArch: cycles simulated: 28000  inst.: 1559296 (ipc=55.7) sim_rate=38982 (inst/sec) elapsed = 0:0:00:40 / Tue Apr 16 16:52:28 2019
GPGPU-Sim uArch: cycles simulated: 28500  inst.: 1576320 (ipc=55.3) sim_rate=38446 (inst/sec) elapsed = 0:0:00:41 / Tue Apr 16 16:52:29 2019
GPGPU-Sim uArch: cycles simulated: 29500  inst.: 1607168 (ipc=54.5) sim_rate=38265 (inst/sec) elapsed = 0:0:00:42 / Tue Apr 16 16:52:30 2019
GPGPU-Sim PTX: 1700000 instructions simulated : ctaid=(10,0,0) tid=(31,0,0)
GPGPU-Sim uArch: cycles simulated: 30500  inst.: 1639456 (ipc=53.8) sim_rate=38126 (inst/sec) elapsed = 0:0:00:43 / Tue Apr 16 16:52:31 2019
GPGPU-Sim uArch: cycles simulated: 31000  inst.: 1655744 (ipc=53.4) sim_rate=37630 (inst/sec) elapsed = 0:0:00:44 / Tue Apr 16 16:52:32 2019
GPGPU-Sim uArch: cycles simulated: 31500  inst.: 1671008 (ipc=53.0) sim_rate=37133 (inst/sec) elapsed = 0:0:00:45 / Tue Apr 16 16:52:33 2019
GPGPU-Sim uArch: cycles simulated: 32000  inst.: 1686464 (ipc=52.7) sim_rate=36662 (inst/sec) elapsed = 0:0:00:46 / Tue Apr 16 16:52:34 2019
GPGPU-Sim uArch: cycles simulated: 33000  inst.: 1714368 (ipc=52.0) sim_rate=36475 (inst/sec) elapsed = 0:0:00:47 / Tue Apr 16 16:52:35 2019
GPGPU-Sim PTX: 1800000 instructions simulated : ctaid=(5,0,0) tid=(223,0,0)
GPGPU-Sim uArch: cycles simulated: 33500  inst.: 1729120 (ipc=51.6) sim_rate=36023 (inst/sec) elapsed = 0:0:00:48 / Tue Apr 16 16:52:36 2019
GPGPU-Sim uArch: cycles simulated: 34500  inst.: 1762496 (ipc=51.1) sim_rate=35969 (inst/sec) elapsed = 0:0:00:49 / Tue Apr 16 16:52:37 2019
GPGPU-Sim uArch: cycles simulated: 35500  inst.: 1789280 (ipc=50.4) sim_rate=35785 (inst/sec) elapsed = 0:0:00:50 / Tue Apr 16 16:52:38 2019
GPGPU-Sim uArch: cycles simulated: 36000  inst.: 1803456 (ipc=50.1) sim_rate=35361 (inst/sec) elapsed = 0:0:00:51 / Tue Apr 16 16:52:39 2019
GPGPU-Sim PTX: 1900000 instructions simulated : ctaid=(3,1,0) tid=(159,0,0)
GPGPU-Sim uArch: cycles simulated: 37000  inst.: 1839648 (ipc=49.7) sim_rate=35377 (inst/sec) elapsed = 0:0:00:52 / Tue Apr 16 16:52:40 2019
GPGPU-Sim uArch: cycles simulated: 37500  inst.: 1852416 (ipc=49.4) sim_rate=34951 (inst/sec) elapsed = 0:0:00:53 / Tue Apr 16 16:52:41 2019
GPGPU-Sim uArch: cycles simulated: 38000  inst.: 1865824 (ipc=49.1) sim_rate=34552 (inst/sec) elapsed = 0:0:00:54 / Tue Apr 16 16:52:42 2019
GPGPU-Sim uArch: cycles simulated: 39000  inst.: 1899744 (ipc=48.7) sim_rate=34540 (inst/sec) elapsed = 0:0:00:55 / Tue Apr 16 16:52:43 2019
GPGPU-Sim PTX: 2000000 instructions simulated : ctaid=(8,0,0) tid=(159,0,0)
GPGPU-Sim uArch: cycles simulated: 40000  inst.: 1931552 (ipc=48.3) sim_rate=34492 (inst/sec) elapsed = 0:0:00:56 / Tue Apr 16 16:52:44 2019
GPGPU-Sim uArch: cycles simulated: 40500  inst.: 1948928 (ipc=48.1) sim_rate=34191 (inst/sec) elapsed = 0:0:00:57 / Tue Apr 16 16:52:45 2019
GPGPU-Sim uArch: cycles simulated: 41000  inst.: 1962208 (ipc=47.9) sim_rate=33831 (inst/sec) elapsed = 0:0:00:58 / Tue Apr 16 16:52:46 2019
GPGPU-Sim uArch: cycles simulated: 42000  inst.: 1994080 (ipc=47.5) sim_rate=33797 (inst/sec) elapsed = 0:0:00:59 / Tue Apr 16 16:52:47 2019
GPGPU-Sim uArch: cycles simulated: 42500  inst.: 2008768 (ipc=47.3) sim_rate=33479 (inst/sec) elapsed = 0:0:01:00 / Tue Apr 16 16:52:48 2019
GPGPU-Sim PTX: 2100000 instructions simulated : ctaid=(1,2,0) tid=(159,0,0)
GPGPU-Sim uArch: cycles simulated: 43500  inst.: 2040864 (ipc=46.9) sim_rate=33456 (inst/sec) elapsed = 0:0:01:01 / Tue Apr 16 16:52:49 2019
GPGPU-Sim uArch: cycles simulated: 44000  inst.: 2058336 (ipc=46.8) sim_rate=33198 (inst/sec) elapsed = 0:0:01:02 / Tue Apr 16 16:52:50 2019
GPGPU-Sim uArch: cycles simulated: 45000  inst.: 2083136 (ipc=46.3) sim_rate=33065 (inst/sec) elapsed = 0:0:01:03 / Tue Apr 16 16:52:51 2019
GPGPU-Sim uArch: cycles simulated: 46000  inst.: 2113472 (ipc=45.9) sim_rate=33023 (inst/sec) elapsed = 0:0:01:04 / Tue Apr 16 16:52:52 2019
GPGPU-Sim uArch: cycles simulated: 46500  inst.: 2125664 (ipc=45.7) sim_rate=32702 (inst/sec) elapsed = 0:0:01:05 / Tue Apr 16 16:52:53 2019
GPGPU-Sim PTX: 2200000 instructions simulated : ctaid=(0,1,0) tid=(31,0,0)
GPGPU-Sim uArch: cycles simulated: 47500  inst.: 2153376 (ipc=45.3) sim_rate=32626 (inst/sec) elapsed = 0:0:01:06 / Tue Apr 16 16:52:54 2019
GPGPU-Sim uArch: cycles simulated: 48000  inst.: 2170560 (ipc=45.2) sim_rate=32396 (inst/sec) elapsed = 0:0:01:07 / Tue Apr 16 16:52:55 2019
GPGPU-Sim uArch: cycles simulated: 49000  inst.: 2200544 (ipc=44.9) sim_rate=32360 (inst/sec) elapsed = 0:0:01:08 / Tue Apr 16 16:52:56 2019
GPGPU-Sim PTX: 2300000 instructions simulated : ctaid=(5,1,0) tid=(31,0,0)
GPGPU-Sim uArch: cycles simulated: 50000  inst.: 2232192 (ipc=44.6) sim_rate=32350 (inst/sec) elapsed = 0:0:01:09 / Tue Apr 16 16:52:57 2019
GPGPU-Sim uArch: cycles simulated: 50500  inst.: 2246528 (ipc=44.5) sim_rate=32093 (inst/sec) elapsed = 0:0:01:10 / Tue Apr 16 16:52:58 2019
GPGPU-Sim uArch: cycles simulated: 51500  inst.: 2278048 (ipc=44.2) sim_rate=32085 (inst/sec) elapsed = 0:0:01:11 / Tue Apr 16 16:52:59 2019
GPGPU-Sim uArch: cycles simulated: 52000  inst.: 2294528 (ipc=44.1) sim_rate=31868 (inst/sec) elapsed = 0:0:01:12 / Tue Apr 16 16:53:00 2019
GPGPU-Sim uArch: cycles simulated: 53000  inst.: 2318848 (ipc=43.8) sim_rate=31765 (inst/sec) elapsed = 0:0:01:13 / Tue Apr 16 16:53:01 2019
GPGPU-Sim PTX: 2400000 instructions simulated : ctaid=(10,0,0) tid=(159,0,0)
GPGPU-Sim uArch: cycles simulated: 53500  inst.: 2333024 (ipc=43.6) sim_rate=31527 (inst/sec) elapsed = 0:0:01:14 / Tue Apr 16 16:53:02 2019
GPGPU-Sim uArch: cycles simulated: 54500  inst.: 2368448 (ipc=43.5) sim_rate=31579 (inst/sec) elapsed = 0:0:01:15 / Tue Apr 16 16:53:03 2019
GPGPU-Sim uArch: cycles simulated: 55500  inst.: 2399296 (ipc=43.2) sim_rate=31569 (inst/sec) elapsed = 0:0:01:16 / Tue Apr 16 16:53:04 2019
GPGPU-Sim uArch: cycles simulated: 56000  inst.: 2411424 (ipc=43.1) sim_rate=31317 (inst/sec) elapsed = 0:0:01:17 / Tue Apr 16 16:53:05 2019
GPGPU-Sim PTX: 2500000 instructions simulated : ctaid=(1,1,0) tid=(31,0,0)
GPGPU-Sim uArch: cycles simulated: 57000  inst.: 2441856 (ipc=42.8) sim_rate=31305 (inst/sec) elapsed = 0:0:01:18 / Tue Apr 16 16:53:06 2019
GPGPU-Sim uArch: cycles simulated: 57500  inst.: 2457408 (ipc=42.7) sim_rate=31106 (inst/sec) elapsed = 0:0:01:19 / Tue Apr 16 16:53:07 2019
GPGPU-Sim uArch: cycles simulated: 58000  inst.: 2470208 (ipc=42.6) sim_rate=30877 (inst/sec) elapsed = 0:0:01:20 / Tue Apr 16 16:53:08 2019
GPGPU-Sim uArch: cycles simulated: 59000  inst.: 2503840 (ipc=42.4) sim_rate=30911 (inst/sec) elapsed = 0:0:01:21 / Tue Apr 16 16:53:09 2019
GPGPU-Sim uArch: cycles simulated: 59500  inst.: 2520736 (ipc=42.4) sim_rate=30740 (inst/sec) elapsed = 0:0:01:22 / Tue Apr 16 16:53:10 2019
GPGPU-Sim PTX: 2600000 instructions simulated : ctaid=(7,0,0) tid=(159,0,0)
GPGPU-Sim uArch: cycles simulated: 60000  inst.: 2537888 (ipc=42.3) sim_rate=30576 (inst/sec) elapsed = 0:0:01:23 / Tue Apr 16 16:53:11 2019
GPGPU-Sim uArch: cycles simulated: 61000  inst.: 2571712 (ipc=42.2) sim_rate=30615 (inst/sec) elapsed = 0:0:01:24 / Tue Apr 16 16:53:12 2019
GPGPU-Sim uArch: cycles simulated: 62000  inst.: 2595136 (ipc=41.9) sim_rate=30531 (inst/sec) elapsed = 0:0:01:25 / Tue Apr 16 16:53:13 2019
GPGPU-Sim uArch: cycles simulated: 62500  inst.: 2614176 (ipc=41.8) sim_rate=30397 (inst/sec) elapsed = 0:0:01:26 / Tue Apr 16 16:53:14 2019
GPGPU-Sim PTX: 2700000 instructions simulated : ctaid=(6,0,0) tid=(159,0,0)
GPGPU-Sim uArch: cycles simulated: 63000  inst.: 2634496 (ipc=41.8) sim_rate=30281 (inst/sec) elapsed = 0:0:01:27 / Tue Apr 16 16:53:15 2019
GPGPU-Sim uArch: cycles simulated: 64000  inst.: 2660416 (ipc=41.6) sim_rate=30232 (inst/sec) elapsed = 0:0:01:28 / Tue Apr 16 16:53:16 2019
GPGPU-Sim uArch: cycles simulated: 64500  inst.: 2682368 (ipc=41.6) sim_rate=30138 (inst/sec) elapsed = 0:0:01:29 / Tue Apr 16 16:53:17 2019
GPGPU-Sim uArch: cycles simulated: 65000  inst.: 2697248 (ipc=41.5) sim_rate=29969 (inst/sec) elapsed = 0:0:01:30 / Tue Apr 16 16:53:18 2019
GPGPU-Sim uArch: cycles simulated: 65500  inst.: 2710592 (ipc=41.4) sim_rate=29786 (inst/sec) elapsed = 0:0:01:31 / Tue Apr 16 16:53:19 2019
GPGPU-Sim PTX: 2800000 instructions simulated : ctaid=(0,0,0) tid=(159,0,0)
GPGPU-Sim uArch: cycles simulated: 66500  inst.: 2741376 (ipc=41.2) sim_rate=29797 (inst/sec) elapsed = 0:0:01:32 / Tue Apr 16 16:53:20 2019
GPGPU-Sim uArch: cycles simulated: 67000  inst.: 2754112 (ipc=41.1) sim_rate=29614 (inst/sec) elapsed = 0:0:01:33 / Tue Apr 16 16:53:21 2019
GPGPU-Sim uArch: cycles simulated: 67500  inst.: 2764928 (ipc=41.0) sim_rate=29414 (inst/sec) elapsed = 0:0:01:34 / Tue Apr 16 16:53:22 2019
GPGPU-Sim uArch: cycles simulated: 68500  inst.: 2800128 (ipc=40.9) sim_rate=29475 (inst/sec) elapsed = 0:0:01:35 / Tue Apr 16 16:53:23 2019
GPGPU-Sim PTX: 2900000 instructions simulated : ctaid=(6,0,0) tid=(95,0,0)
GPGPU-Sim uArch: cycles simulated: 69500  inst.: 2829216 (ipc=40.7) sim_rate=29471 (inst/sec) elapsed = 0:0:01:36 / Tue Apr 16 16:53:24 2019
GPGPU-Sim uArch: cycles simulated: 70000  inst.: 2847264 (ipc=40.7) sim_rate=29353 (inst/sec) elapsed = 0:0:01:37 / Tue Apr 16 16:53:25 2019
GPGPU-Sim uArch: cycles simulated: 70500  inst.: 2858656 (ipc=40.5) sim_rate=29169 (inst/sec) elapsed = 0:0:01:38 / Tue Apr 16 16:53:26 2019
GPGPU-Sim uArch: cycles simulated: 71500  inst.: 2897120 (ipc=40.5) sim_rate=29263 (inst/sec) elapsed = 0:0:01:39 / Tue Apr 16 16:53:27 2019
GPGPU-Sim uArch: cycles simulated: 72500  inst.: 2924960 (ipc=40.3) sim_rate=29249 (inst/sec) elapsed = 0:0:01:40 / Tue Apr 16 16:53:28 2019
GPGPU-Sim PTX: 3000000 instructions simulated : ctaid=(4,0,0) tid=(159,0,0)
GPGPU-Sim uArch: cycles simulated: 73000  inst.: 2943712 (ipc=40.3) sim_rate=29145 (inst/sec) elapsed = 0:0:01:41 / Tue Apr 16 16:53:29 2019
GPGPU-Sim uArch: cycles simulated: 73500  inst.: 2961472 (ipc=40.3) sim_rate=29034 (inst/sec) elapsed = 0:0:01:42 / Tue Apr 16 16:53:30 2019
GPGPU-Sim uArch: cycles simulated: 74000  inst.: 2976416 (ipc=40.2) sim_rate=28897 (inst/sec) elapsed = 0:0:01:43 / Tue Apr 16 16:53:31 2019
GPGPU-Sim uArch: cycles simulated: 75000  inst.: 2999872 (ipc=40.0) sim_rate=28844 (inst/sec) elapsed = 0:0:01:44 / Tue Apr 16 16:53:32 2019
GPGPU-Sim uArch: cycles simulated: 75500  inst.: 3016416 (ipc=40.0) sim_rate=28727 (inst/sec) elapsed = 0:0:01:45 / Tue Apr 16 16:53:33 2019
GPGPU-Sim PTX: 3100000 instructions simulated : ctaid=(3,2,0) tid=(31,0,0)
GPGPU-Sim uArch: cycles simulated: 76500  inst.: 3039488 (ipc=39.7) sim_rate=28674 (inst/sec) elapsed = 0:0:01:46 / Tue Apr 16 16:53:34 2019
GPGPU-Sim uArch: cycles simulated: 77000  inst.: 3055712 (ipc=39.7) sim_rate=28558 (inst/sec) elapsed = 0:0:01:47 / Tue Apr 16 16:53:35 2019
GPGPU-Sim uArch: cycles simulated: 77500  inst.: 3073312 (ipc=39.7) sim_rate=28456 (inst/sec) elapsed = 0:0:01:48 / Tue Apr 16 16:53:36 2019
GPGPU-Sim uArch: cycles simulated: 78500  inst.: 3103200 (ipc=39.5) sim_rate=28469 (inst/sec) elapsed = 0:0:01:49 / Tue Apr 16 16:53:37 2019
GPGPU-Sim uArch: cycles simulated: 79000  inst.: 3115872 (ipc=39.4) sim_rate=28326 (inst/sec) elapsed = 0:0:01:50 / Tue Apr 16 16:53:38 2019
GPGPU-Sim PTX: 3200000 instructions simulated : ctaid=(0,1,0) tid=(31,0,0)
GPGPU-Sim uArch: cycles simulated: 80000  inst.: 3142592 (ipc=39.3) sim_rate=28311 (inst/sec) elapsed = 0:0:01:51 / Tue Apr 16 16:53:39 2019
GPGPU-Sim uArch: cycles simulated: 80500  inst.: 3157184 (ipc=39.2) sim_rate=28189 (inst/sec) elapsed = 0:0:01:52 / Tue Apr 16 16:53:40 2019
GPGPU-Sim uArch: cycles simulated: 81500  inst.: 3191776 (ipc=39.2) sim_rate=28245 (inst/sec) elapsed = 0:0:01:53 / Tue Apr 16 16:53:41 2019
GPGPU-Sim uArch: cycles simulated: 82000  inst.: 3210176 (ipc=39.1) sim_rate=28159 (inst/sec) elapsed = 0:0:01:54 / Tue Apr 16 16:53:42 2019
GPGPU-Sim PTX: 3300000 instructions simulated : ctaid=(1,1,0) tid=(31,0,0)
GPGPU-Sim uArch: cycles simulated: 83000  inst.: 3241280 (ipc=39.1) sim_rate=28185 (inst/sec) elapsed = 0:0:01:55 / Tue Apr 16 16:53:43 2019
GPGPU-Sim uArch: cycles simulated: 83500  inst.: 3257600 (ipc=39.0) sim_rate=28082 (inst/sec) elapsed = 0:0:01:56 / Tue Apr 16 16:53:44 2019
GPGPU-Sim uArch: cycles simulated: 84000  inst.: 3269952 (ipc=38.9) sim_rate=27948 (inst/sec) elapsed = 0:0:01:57 / Tue Apr 16 16:53:45 2019
GPGPU-Sim uArch: cycles simulated: 85000  inst.: 3295872 (ipc=38.8) sim_rate=27931 (inst/sec) elapsed = 0:0:01:58 / Tue Apr 16 16:53:46 2019
GPGPU-Sim uArch: cycles simulated: 85500  inst.: 3314592 (ipc=38.8) sim_rate=27853 (inst/sec) elapsed = 0:0:01:59 / Tue Apr 16 16:53:47 2019
GPGPU-Sim PTX: 3400000 instructions simulated : ctaid=(3,1,0) tid=(255,0,0)
GPGPU-Sim uArch: cycles simulated: 86500  inst.: 3343328 (ipc=38.7) sim_rate=27861 (inst/sec) elapsed = 0:0:02:00 / Tue Apr 16 16:53:48 2019
GPGPU-Sim uArch: cycles simulated: 87000  inst.: 3356096 (ipc=38.6) sim_rate=27736 (inst/sec) elapsed = 0:0:02:01 / Tue Apr 16 16:53:49 2019
GPGPU-Sim uArch: cycles simulated: 88000  inst.: 3390976 (ipc=38.5) sim_rate=27794 (inst/sec) elapsed = 0:0:02:02 / Tue Apr 16 16:53:50 2019
GPGPU-Sim uArch: cycles simulated: 88500  inst.: 3407776 (ipc=38.5) sim_rate=27705 (inst/sec) elapsed = 0:0:02:03 / Tue Apr 16 16:53:51 2019
GPGPU-Sim uArch: cycles simulated: 89000  inst.: 3422208 (ipc=38.5) sim_rate=27598 (inst/sec) elapsed = 0:0:02:04 / Tue Apr 16 16:53:52 2019
GPGPU-Sim PTX: 3500000 instructions simulated : ctaid=(4,1,0) tid=(223,0,0)
GPGPU-Sim uArch: cycles simulated: 89500  inst.: 3432960 (ipc=38.4) sim_rate=27463 (inst/sec) elapsed = 0:0:02:05 / Tue Apr 16 16:53:53 2019
GPGPU-Sim uArch: cycles simulated: 90500  inst.: 3459360 (ipc=38.2) sim_rate=27455 (inst/sec) elapsed = 0:0:02:06 / Tue Apr 16 16:53:54 2019
GPGPU-Sim uArch: cycles simulated: 91000  inst.: 3479104 (ipc=38.2) sim_rate=27394 (inst/sec) elapsed = 0:0:02:07 / Tue Apr 16 16:53:55 2019
GPGPU-Sim uArch: cycles simulated: 92000  inst.: 3502208 (ipc=38.1) sim_rate=27361 (inst/sec) elapsed = 0:0:02:08 / Tue Apr 16 16:53:56 2019
GPGPU-Sim uArch: cycles simulated: 92500  inst.: 3520448 (ipc=38.1) sim_rate=27290 (inst/sec) elapsed = 0:0:02:09 / Tue Apr 16 16:53:57 2019
GPGPU-Sim PTX: 3600000 instructions simulated : ctaid=(10,0,0) tid=(223,0,0)
GPGPU-Sim uArch: cycles simulated: 93500  inst.: 3542560 (ipc=37.9) sim_rate=27250 (inst/sec) elapsed = 0:0:02:10 / Tue Apr 16 16:53:58 2019
GPGPU-Sim uArch: cycles simulated: 94000  inst.: 3553312 (ipc=37.8) sim_rate=27124 (inst/sec) elapsed = 0:0:02:11 / Tue Apr 16 16:53:59 2019
GPGPU-Sim uArch: cycles simulated: 95000  inst.: 3587424 (ipc=37.8) sim_rate=27177 (inst/sec) elapsed = 0:0:02:12 / Tue Apr 16 16:54:00 2019
GPGPU-Sim uArch: cycles simulated: 95500  inst.: 3605920 (ipc=37.8) sim_rate=27112 (inst/sec) elapsed = 0:0:02:13 / Tue Apr 16 16:54:01 2019
GPGPU-Sim PTX: 3700000 instructions simulated : ctaid=(1,0,0) tid=(223,0,0)
GPGPU-Sim uArch: cycles simulated: 96500  inst.: 3638144 (ipc=37.7) sim_rate=27150 (inst/sec) elapsed = 0:0:02:14 / Tue Apr 16 16:54:02 2019
GPGPU-Sim uArch: cycles simulated: 97000  inst.: 3653984 (ipc=37.7) sim_rate=27066 (inst/sec) elapsed = 0:0:02:15 / Tue Apr 16 16:54:03 2019
GPGPU-Sim uArch: cycles simulated: 98000  inst.: 3681728 (ipc=37.6) sim_rate=27071 (inst/sec) elapsed = 0:0:02:16 / Tue Apr 16 16:54:04 2019
GPGPU-Sim uArch: cycles simulated: 98500  inst.: 3697600 (ipc=37.5) sim_rate=26989 (inst/sec) elapsed = 0:0:02:17 / Tue Apr 16 16:54:05 2019
GPGPU-Sim PTX: 3800000 instructions simulated : ctaid=(8,0,0) tid=(191,0,0)
GPGPU-Sim uArch: cycles simulated: 99500  inst.: 3728352 (ipc=37.5) sim_rate=27017 (inst/sec) elapsed = 0:0:02:18 / Tue Apr 16 16:54:06 2019
GPGPU-Sim uArch: cycles simulated: 100500  inst.: 3753312 (ipc=37.3) sim_rate=27002 (inst/sec) elapsed = 0:0:02:19 / Tue Apr 16 16:54:07 2019
GPGPU-Sim uArch: cycles simulated: 101000  inst.: 3769600 (ipc=37.3) sim_rate=26925 (inst/sec) elapsed = 0:0:02:20 / Tue Apr 16 16:54:08 2019
GPGPU-Sim uArch: cycles simulated: 101500  inst.: 3785152 (ipc=37.3) sim_rate=26845 (inst/sec) elapsed = 0:0:02:21 / Tue Apr 16 16:54:09 2019
GPGPU-Sim uArch: cycles simulated: 102500  inst.: 3814272 (ipc=37.2) sim_rate=26861 (inst/sec) elapsed = 0:0:02:22 / Tue Apr 16 16:54:10 2019
GPGPU-Sim PTX: 3900000 instructions simulated : ctaid=(6,0,0) tid=(31,0,0)
GPGPU-Sim uArch: cycles simulated: 103500  inst.: 3832800 (ipc=37.0) sim_rate=26802 (inst/sec) elapsed = 0:0:02:23 / Tue Apr 16 16:54:11 2019
GPGPU-Sim uArch: cycles simulated: 104000  inst.: 3853600 (ipc=37.1) sim_rate=26761 (inst/sec) elapsed = 0:0:02:24 / Tue Apr 16 16:54:12 2019
GPGPU-Sim uArch: cycles simulated: 105000  inst.: 3877792 (ipc=36.9) sim_rate=26743 (inst/sec) elapsed = 0:0:02:25 / Tue Apr 16 16:54:13 2019
GPGPU-Sim uArch: cycles simulated: 105500  inst.: 3888512 (ipc=36.9) sim_rate=26633 (inst/sec) elapsed = 0:0:02:26 / Tue Apr 16 16:54:14 2019
GPGPU-Sim uArch: cycles simulated: 106500  inst.: 3920800 (ipc=36.8) sim_rate=26672 (inst/sec) elapsed = 0:0:02:27 / Tue Apr 16 16:54:15 2019
GPGPU-Sim PTX: 4000000 instructions simulated : ctaid=(8,1,0) tid=(159,0,0)
GPGPU-Sim uArch: cycles simulated: 107000  inst.: 3934944 (ipc=36.8) sim_rate=26587 (inst/sec) elapsed = 0:0:02:28 / Tue Apr 16 16:54:16 2019
GPGPU-Sim uArch: cycles simulated: 108000  inst.: 3965760 (ipc=36.7) sim_rate=26615 (inst/sec) elapsed = 0:0:02:29 / Tue Apr 16 16:54:17 2019
GPGPU-Sim uArch: cycles simulated: 109000  inst.: 3992576 (ipc=36.6) sim_rate=26617 (inst/sec) elapsed = 0:0:02:30 / Tue Apr 16 16:54:18 2019
GPGPU-Sim uArch: cycles simulated: 109500  inst.: 4007872 (ipc=36.6) sim_rate=26542 (inst/sec) elapsed = 0:0:02:31 / Tue Apr 16 16:54:19 2019
GPGPU-Sim PTX: 4100000 instructions simulated : ctaid=(2,1,0) tid=(223,0,0)
GPGPU-Sim uArch: cycles simulated: 110500  inst.: 4035232 (ipc=36.5) sim_rate=26547 (inst/sec) elapsed = 0:0:02:32 / Tue Apr 16 16:54:20 2019
GPGPU-Sim uArch: cycles simulated: 111000  inst.: 4048192 (ipc=36.5) sim_rate=26458 (inst/sec) elapsed = 0:0:02:33 / Tue Apr 16 16:54:21 2019
GPGPU-Sim uArch: cycles simulated: 112000  inst.: 4083968 (ipc=36.5) sim_rate=26519 (inst/sec) elapsed = 0:0:02:34 / Tue Apr 16 16:54:22 2019
GPGPU-Sim uArch: cycles simulated: 112500  inst.: 4101248 (ipc=36.5) sim_rate=26459 (inst/sec) elapsed = 0:0:02:35 / Tue Apr 16 16:54:23 2019
GPGPU-Sim uArch: cycles simulated: 113000  inst.: 4115904 (ipc=36.4) sim_rate=26384 (inst/sec) elapsed = 0:0:02:36 / Tue Apr 16 16:54:24 2019
GPGPU-Sim PTX: 4200000 instructions simulated : ctaid=(5,1,0) tid=(95,0,0)
GPGPU-Sim uArch: cycles simulated: 114000  inst.: 4149952 (ipc=36.4) sim_rate=26432 (inst/sec) elapsed = 0:0:02:37 / Tue Apr 16 16:54:25 2019
GPGPU-Sim uArch: cycles simulated: 115000  inst.: 4176000 (ipc=36.3) sim_rate=26430 (inst/sec) elapsed = 0:0:02:38 / Tue Apr 16 16:54:26 2019
GPGPU-Sim uArch: cycles simulated: 115500  inst.: 4189024 (ipc=36.3) sim_rate=26346 (inst/sec) elapsed = 0:0:02:39 / Tue Apr 16 16:54:27 2019
GPGPU-Sim uArch: cycles simulated: 116500  inst.: 4216640 (ipc=36.2) sim_rate=26354 (inst/sec) elapsed = 0:0:02:40 / Tue Apr 16 16:54:28 2019
GPGPU-Sim PTX: 4300000 instructions simulated : ctaid=(8,1,0) tid=(159,0,0)
GPGPU-Sim uArch: cycles simulated: 117000  inst.: 4230976 (ipc=36.2) sim_rate=26279 (inst/sec) elapsed = 0:0:02:41 / Tue Apr 16 16:54:29 2019
GPGPU-Sim uArch: cycles simulated: 118000  inst.: 4263264 (ipc=36.1) sim_rate=26316 (inst/sec) elapsed = 0:0:02:42 / Tue Apr 16 16:54:30 2019
GPGPU-Sim uArch: cycles simulated: 118500  inst.: 4282816 (ipc=36.1) sim_rate=26274 (inst/sec) elapsed = 0:0:02:43 / Tue Apr 16 16:54:31 2019
GPGPU-Sim uArch: cycles simulated: 119500  inst.: 4308416 (ipc=36.1) sim_rate=26270 (inst/sec) elapsed = 0:0:02:44 / Tue Apr 16 16:54:32 2019
GPGPU-Sim PTX: 4400000 instructions simulated : ctaid=(1,1,0) tid=(223,0,0)
GPGPU-Sim uArch: cycles simulated: 120500  inst.: 4333984 (ipc=36.0) sim_rate=26266 (inst/sec) elapsed = 0:0:02:45 / Tue Apr 16 16:54:33 2019
GPGPU-Sim uArch: cycles simulated: 121500  inst.: 4358112 (ipc=35.9) sim_rate=26253 (inst/sec) elapsed = 0:0:02:46 / Tue Apr 16 16:54:34 2019
GPGPU-Sim uArch: cycles simulated: 122000  inst.: 4373984 (ipc=35.9) sim_rate=26191 (inst/sec) elapsed = 0:0:02:47 / Tue Apr 16 16:54:35 2019
GPGPU-Sim uArch: cycles simulated: 123000  inst.: 4397120 (ipc=35.7) sim_rate=26173 (inst/sec) elapsed = 0:0:02:48 / Tue Apr 16 16:54:36 2019
GPGPU-Sim uArch: cycles simulated: 124000  inst.: 4419328 (ipc=35.6) sim_rate=26149 (inst/sec) elapsed = 0:0:02:49 / Tue Apr 16 16:54:37 2019
GPGPU-Sim PTX: 4500000 instructions simulated : ctaid=(1,2,0) tid=(159,0,0)
GPGPU-Sim uArch: cycles simulated: 124500  inst.: 4434464 (ipc=35.6) sim_rate=26085 (inst/sec) elapsed = 0:0:02:50 / Tue Apr 16 16:54:38 2019
GPGPU-Sim uArch: cycles simulated: 125500  inst.: 4467808 (ipc=35.6) sim_rate=26127 (inst/sec) elapsed = 0:0:02:51 / Tue Apr 16 16:54:39 2019
GPGPU-Sim uArch: cycles simulated: 126000  inst.: 4486592 (ipc=35.6) sim_rate=26084 (inst/sec) elapsed = 0:0:02:52 / Tue Apr 16 16:54:40 2019
GPGPU-Sim uArch: cycles simulated: 127000  inst.: 4516608 (ipc=35.6) sim_rate=26107 (inst/sec) elapsed = 0:0:02:53 / Tue Apr 16 16:54:41 2019
GPGPU-Sim PTX: 4600000 instructions simulated : ctaid=(6,1,0) tid=(95,0,0)
GPGPU-Sim uArch: cycles simulated: 127500  inst.: 4528576 (ipc=35.5) sim_rate=26026 (inst/sec) elapsed = 0:0:02:54 / Tue Apr 16 16:54:42 2019
GPGPU-Sim uArch: cycles simulated: 128500  inst.: 4560192 (ipc=35.5) sim_rate=26058 (inst/sec) elapsed = 0:0:02:55 / Tue Apr 16 16:54:43 2019
GPGPU-Sim uArch: cycles simulated: 129000  inst.: 4572864 (ipc=35.4) sim_rate=25982 (inst/sec) elapsed = 0:0:02:56 / Tue Apr 16 16:54:44 2019
GPGPU-Sim uArch: cycles simulated: 130000  inst.: 4603520 (ipc=35.4) sim_rate=26008 (inst/sec) elapsed = 0:0:02:57 / Tue Apr 16 16:54:45 2019
GPGPU-Sim uArch: cycles simulated: 130500  inst.: 4621664 (ipc=35.4) sim_rate=25964 (inst/sec) elapsed = 0:0:02:58 / Tue Apr 16 16:54:46 2019
GPGPU-Sim PTX: 4700000 instructions simulated : ctaid=(5,2,0) tid=(95,0,0)
GPGPU-Sim uArch: cycles simulated: 131500  inst.: 4651904 (ipc=35.4) sim_rate=25988 (inst/sec) elapsed = 0:0:02:59 / Tue Apr 16 16:54:47 2019
GPGPU-Sim uArch: cycles simulated: 132000  inst.: 4671424 (ipc=35.4) sim_rate=25952 (inst/sec) elapsed = 0:0:03:00 / Tue Apr 16 16:54:48 2019
GPGPU-Sim uArch: cycles simulated: 133000  inst.: 4705056 (ipc=35.4) sim_rate=25994 (inst/sec) elapsed = 0:0:03:01 / Tue Apr 16 16:54:49 2019
GPGPU-Sim uArch: cycles simulated: 133500  inst.: 4716160 (ipc=35.3) sim_rate=25912 (inst/sec) elapsed = 0:0:03:02 / Tue Apr 16 16:54:50 2019
GPGPU-Sim PTX: 4800000 instructions simulated : ctaid=(10,1,0) tid=(223,0,0)
GPGPU-Sim uArch: cycles simulated: 134000  inst.: 4729216 (ipc=35.3) sim_rate=25842 (inst/sec) elapsed = 0:0:03:03 / Tue Apr 16 16:54:51 2019
GPGPU-Sim uArch: cycles simulated: 135000  inst.: 4760960 (ipc=35.3) sim_rate=25874 (inst/sec) elapsed = 0:0:03:04 / Tue Apr 16 16:54:52 2019
GPGPU-Sim uArch: cycles simulated: 135500  inst.: 4773632 (ipc=35.2) sim_rate=25803 (inst/sec) elapsed = 0:0:03:05 / Tue Apr 16 16:54:53 2019
GPGPU-Sim uArch: cycles simulated: 136500  inst.: 4808832 (ipc=35.2) sim_rate=25853 (inst/sec) elapsed = 0:0:03:06 / Tue Apr 16 16:54:54 2019
GPGPU-Sim uArch: cycles simulated: 137000  inst.: 4823648 (ipc=35.2) sim_rate=25794 (inst/sec) elapsed = 0:0:03:07 / Tue Apr 16 16:54:55 2019
GPGPU-Sim PTX: 4900000 instructions simulated : ctaid=(0,0,0) tid=(95,0,0)
GPGPU-Sim uArch: cycles simulated: 138000  inst.: 4851584 (ipc=35.2) sim_rate=25806 (inst/sec) elapsed = 0:0:03:08 / Tue Apr 16 16:54:56 2019
GPGPU-Sim uArch: cycles simulated: 138500  inst.: 4864768 (ipc=35.1) sim_rate=25739 (inst/sec) elapsed = 0:0:03:09 / Tue Apr 16 16:54:57 2019
GPGPU-Sim uArch: cycles simulated: 139500  inst.: 4900064 (ipc=35.1) sim_rate=25789 (inst/sec) elapsed = 0:0:03:10 / Tue Apr 16 16:54:58 2019
GPGPU-Sim uArch: cycles simulated: 140000  inst.: 4916032 (ipc=35.1) sim_rate=25738 (inst/sec) elapsed = 0:0:03:11 / Tue Apr 16 16:54:59 2019
GPGPU-Sim PTX: 5000000 instructions simulated : ctaid=(2,2,0) tid=(159,0,0)
GPGPU-Sim uArch: cycles simulated: 141000  inst.: 4934464 (ipc=35.0) sim_rate=25700 (inst/sec) elapsed = 0:0:03:12 / Tue Apr 16 16:55:00 2019
GPGPU-Sim uArch: cycles simulated: 142000  inst.: 4964864 (ipc=35.0) sim_rate=25724 (inst/sec) elapsed = 0:0:03:13 / Tue Apr 16 16:55:01 2019
GPGPU-Sim uArch: cycles simulated: 142500  inst.: 4979232 (ipc=34.9) sim_rate=25666 (inst/sec) elapsed = 0:0:03:14 / Tue Apr 16 16:55:02 2019
GPGPU-Sim uArch: cycles simulated: 143500  inst.: 5010880 (ipc=34.9) sim_rate=25696 (inst/sec) elapsed = 0:0:03:15 / Tue Apr 16 16:55:03 2019
GPGPU-Sim PTX: 5100000 instructions simulated : ctaid=(9,0,0) tid=(223,0,0)
GPGPU-Sim uArch: cycles simulated: 144000  inst.: 5027840 (ipc=34.9) sim_rate=25652 (inst/sec) elapsed = 0:0:03:16 / Tue Apr 16 16:55:04 2019
GPGPU-Sim uArch: cycles simulated: 145000  inst.: 5064960 (ipc=34.9) sim_rate=25710 (inst/sec) elapsed = 0:0:03:17 / Tue Apr 16 16:55:05 2019
GPGPU-Sim uArch: cycles simulated: 146000  inst.: 5092992 (ipc=34.9) sim_rate=25722 (inst/sec) elapsed = 0:0:03:18 / Tue Apr 16 16:55:06 2019
GPGPU-Sim uArch: cycles simulated: 146500  inst.: 5109664 (ipc=34.9) sim_rate=25676 (inst/sec) elapsed = 0:0:03:19 / Tue Apr 16 16:55:07 2019
GPGPU-Sim PTX: 5200000 instructions simulated : ctaid=(7,0,0) tid=(127,0,0)
GPGPU-Sim uArch: cycles simulated: 147500  inst.: 5136416 (ipc=34.8) sim_rate=25682 (inst/sec) elapsed = 0:0:03:20 / Tue Apr 16 16:55:08 2019
GPGPU-Sim uArch: cycles simulated: 148000  inst.: 5154592 (ipc=34.8) sim_rate=25644 (inst/sec) elapsed = 0:0:03:21 / Tue Apr 16 16:55:09 2019
GPGPU-Sim uArch: cycles simulated: 148500  inst.: 5169824 (ipc=34.8) sim_rate=25593 (inst/sec) elapsed = 0:0:03:22 / Tue Apr 16 16:55:10 2019
GPGPU-Sim uArch: cycles simulated: 149000  inst.: 5186976 (ipc=34.8) sim_rate=25551 (inst/sec) elapsed = 0:0:03:23 / Tue Apr 16 16:55:11 2019
GPGPU-Sim uArch: cycles simulated: 150000  inst.: 5213920 (ipc=34.8) sim_rate=25558 (inst/sec) elapsed = 0:0:03:24 / Tue Apr 16 16:55:12 2019
GPGPU-Sim PTX: 5300000 instructions simulated : ctaid=(1,0,0) tid=(31,0,0)
GPGPU-Sim uArch: cycles simulated: 150500  inst.: 5229792 (ipc=34.7) sim_rate=25511 (inst/sec) elapsed = 0:0:03:25 / Tue Apr 16 16:55:13 2019
GPGPU-Sim uArch: cycles simulated: 151500  inst.: 5264192 (ipc=34.7) sim_rate=25554 (inst/sec) elapsed = 0:0:03:26 / Tue Apr 16 16:55:14 2019
GPGPU-Sim uArch: cycles simulated: 152000  inst.: 5280224 (ipc=34.7) sim_rate=25508 (inst/sec) elapsed = 0:0:03:27 / Tue Apr 16 16:55:15 2019
GPGPU-Sim uArch: cycles simulated: 152500  inst.: 5295200 (ipc=34.7) sim_rate=25457 (inst/sec) elapsed = 0:0:03:28 / Tue Apr 16 16:55:16 2019
GPGPU-Sim PTX: 5400000 instructions simulated : ctaid=(10,1,0) tid=(159,0,0)
GPGPU-Sim uArch: cycles simulated: 153500  inst.: 5328448 (ipc=34.7) sim_rate=25494 (inst/sec) elapsed = 0:0:03:29 / Tue Apr 16 16:55:17 2019
GPGPU-Sim uArch: cycles simulated: 154500  inst.: 5357024 (ipc=34.7) sim_rate=25509 (inst/sec) elapsed = 0:0:03:30 / Tue Apr 16 16:55:18 2019
GPGPU-Sim uArch: cycles simulated: 155000  inst.: 5376352 (ipc=34.7) sim_rate=25480 (inst/sec) elapsed = 0:0:03:31 / Tue Apr 16 16:55:19 2019
GPGPU-Sim uArch: cycles simulated: 156000  inst.: 5412768 (ipc=34.7) sim_rate=25531 (inst/sec) elapsed = 0:0:03:32 / Tue Apr 16 16:55:20 2019
GPGPU-Sim uArch: cycles simulated: 156500  inst.: 5424960 (ipc=34.7) sim_rate=25469 (inst/sec) elapsed = 0:0:03:33 / Tue Apr 16 16:55:21 2019
GPGPU-Sim PTX: 5500000 instructions simulated : ctaid=(5,2,0) tid=(159,0,0)
GPGPU-Sim uArch: cycles simulated: 157500  inst.: 5457280 (ipc=34.6) sim_rate=25501 (inst/sec) elapsed = 0:0:03:34 / Tue Apr 16 16:55:22 2019
GPGPU-Sim uArch: cycles simulated: 158000  inst.: 5476128 (ipc=34.7) sim_rate=25470 (inst/sec) elapsed = 0:0:03:35 / Tue Apr 16 16:55:23 2019
GPGPU-Sim uArch: cycles simulated: 159000  inst.: 5504096 (ipc=34.6) sim_rate=25481 (inst/sec) elapsed = 0:0:03:36 / Tue Apr 16 16:55:24 2019
GPGPU-Sim PTX: 5600000 instructions simulated : ctaid=(2,1,0) tid=(31,0,0)
GPGPU-Sim uArch: cycles simulated: 160000  inst.: 5531328 (ipc=34.6) sim_rate=25489 (inst/sec) elapsed = 0:0:03:37 / Tue Apr 16 16:55:25 2019
GPGPU-Sim uArch: cycles simulated: 160500  inst.: 5545792 (ipc=34.6) sim_rate=25439 (inst/sec) elapsed = 0:0:03:38 / Tue Apr 16 16:55:26 2019
GPGPU-Sim uArch: cycles simulated: 161500  inst.: 5578496 (ipc=34.5) sim_rate=25472 (inst/sec) elapsed = 0:0:03:39 / Tue Apr 16 16:55:27 2019
GPGPU-Sim uArch: cycles simulated: 162500  inst.: 5611968 (ipc=34.5) sim_rate=25508 (inst/sec) elapsed = 0:0:03:40 / Tue Apr 16 16:55:28 2019
GPGPU-Sim PTX: 5700000 instructions simulated : ctaid=(2,1,0) tid=(95,0,0)
GPGPU-Sim uArch: cycles simulated: 163000  inst.: 5628736 (ipc=34.5) sim_rate=25469 (inst/sec) elapsed = 0:0:03:41 / Tue Apr 16 16:55:29 2019
GPGPU-Sim uArch: cycles simulated: 164000  inst.: 5661472 (ipc=34.5) sim_rate=25502 (inst/sec) elapsed = 0:0:03:42 / Tue Apr 16 16:55:30 2019
GPGPU-Sim uArch: cycles simulated: 165000  inst.: 5690496 (ipc=34.5) sim_rate=25517 (inst/sec) elapsed = 0:0:03:43 / Tue Apr 16 16:55:31 2019
GPGPU-Sim uArch: cycles simulated: 165500  inst.: 5704832 (ipc=34.5) sim_rate=25468 (inst/sec) elapsed = 0:0:03:44 / Tue Apr 16 16:55:32 2019
GPGPU-Sim PTX: 5800000 instructions simulated : ctaid=(4,1,0) tid=(31,0,0)
GPGPU-Sim uArch: cycles simulated: 166500  inst.: 5734080 (ipc=34.4) sim_rate=25484 (inst/sec) elapsed = 0:0:03:45 / Tue Apr 16 16:55:33 2019
GPGPU-Sim uArch: cycles simulated: 167500  inst.: 5767552 (ipc=34.4) sim_rate=25520 (inst/sec) elapsed = 0:0:03:46 / Tue Apr 16 16:55:34 2019
GPGPU-Sim uArch: cycles simulated: 168000  inst.: 5785664 (ipc=34.4) sim_rate=25487 (inst/sec) elapsed = 0:0:03:47 / Tue Apr 16 16:55:35 2019
GPGPU-Sim uArch: cycles simulated: 169000  inst.: 5819648 (ipc=34.4) sim_rate=25524 (inst/sec) elapsed = 0:0:03:48 / Tue Apr 16 16:55:36 2019
GPGPU-Sim PTX: 5900000 instructions simulated : ctaid=(9,3,0) tid=(31,0,0)
GPGPU-Sim uArch: cycles simulated: 170000  inst.: 5843008 (ipc=34.4) sim_rate=25515 (inst/sec) elapsed = 0:0:03:49 / Tue Apr 16 16:55:37 2019
GPGPU-Sim uArch: cycles simulated: 170500  inst.: 5858176 (ipc=34.4) sim_rate=25470 (inst/sec) elapsed = 0:0:03:50 / Tue Apr 16 16:55:38 2019
GPGPU-Sim uArch: cycles simulated: 171500  inst.: 5892032 (ipc=34.4) sim_rate=25506 (inst/sec) elapsed = 0:0:03:51 / Tue Apr 16 16:55:39 2019
GPGPU-Sim uArch: cycles simulated: 172500  inst.: 5919936 (ipc=34.3) sim_rate=25516 (inst/sec) elapsed = 0:0:03:52 / Tue Apr 16 16:55:40 2019
GPGPU-Sim PTX: 6000000 instructions simulated : ctaid=(4,1,0) tid=(223,0,0)
GPGPU-Sim uArch: cycles simulated: 173000  inst.: 5940160 (ipc=34.3) sim_rate=25494 (inst/sec) elapsed = 0:0:03:53 / Tue Apr 16 16:55:41 2019
GPGPU-Sim uArch: cycles simulated: 173500  inst.: 5955296 (ipc=34.3) sim_rate=25449 (inst/sec) elapsed = 0:0:03:54 / Tue Apr 16 16:55:42 2019
GPGPU-Sim uArch: cycles simulated: 174500  inst.: 5984128 (ipc=34.3) sim_rate=25464 (inst/sec) elapsed = 0:0:03:55 / Tue Apr 16 16:55:43 2019
GPGPU-Sim uArch: cycles simulated: 175000  inst.: 6005312 (ipc=34.3) sim_rate=25446 (inst/sec) elapsed = 0:0:03:56 / Tue Apr 16 16:55:44 2019
GPGPU-Sim uArch: cycles simulated: 175500  inst.: 6022784 (ipc=34.3) sim_rate=25412 (inst/sec) elapsed = 0:0:03:57 / Tue Apr 16 16:55:45 2019
GPGPU-Sim PTX: 6100000 instructions simulated : ctaid=(6,1,0) tid=(31,0,0)
GPGPU-Sim uArch: cycles simulated: 176500  inst.: 6052768 (ipc=34.3) sim_rate=25431 (inst/sec) elapsed = 0:0:03:58 / Tue Apr 16 16:55:46 2019
GPGPU-Sim uArch: cycles simulated: 177000  inst.: 6071808 (ipc=34.3) sim_rate=25405 (inst/sec) elapsed = 0:0:03:59 / Tue Apr 16 16:55:47 2019
GPGPU-Sim uArch: cycles simulated: 177500  inst.: 6092032 (ipc=34.3) sim_rate=25383 (inst/sec) elapsed = 0:0:04:00 / Tue Apr 16 16:55:48 2019
GPGPU-Sim uArch: cycles simulated: 178500  inst.: 6122592 (ipc=34.3) sim_rate=25404 (inst/sec) elapsed = 0:0:04:01 / Tue Apr 16 16:55:49 2019
GPGPU-Sim PTX: 6200000 instructions simulated : ctaid=(1,1,0) tid=(159,0,0)
GPGPU-Sim uArch: cycles simulated: 179000  inst.: 6138656 (ipc=34.3) sim_rate=25366 (inst/sec) elapsed = 0:0:04:02 / Tue Apr 16 16:55:50 2019
GPGPU-Sim uArch: cycles simulated: 180000  inst.: 6166784 (ipc=34.3) sim_rate=25377 (inst/sec) elapsed = 0:0:04:03 / Tue Apr 16 16:55:51 2019
GPGPU-Sim uArch: cycles simulated: 180500  inst.: 6185792 (ipc=34.3) sim_rate=25351 (inst/sec) elapsed = 0:0:04:04 / Tue Apr 16 16:55:52 2019
GPGPU-Sim uArch: cycles simulated: 181500  inst.: 6218240 (ipc=34.3) sim_rate=25380 (inst/sec) elapsed = 0:0:04:05 / Tue Apr 16 16:55:53 2019
GPGPU-Sim PTX: 6300000 instructions simulated : ctaid=(7,0,0) tid=(31,0,0)
GPGPU-Sim uArch: cycles simulated: 182000  inst.: 6232352 (ipc=34.2) sim_rate=25334 (inst/sec) elapsed = 0:0:04:06 / Tue Apr 16 16:55:54 2019
GPGPU-Sim uArch: cycles simulated: 183000  inst.: 6258208 (ipc=34.2) sim_rate=25336 (inst/sec) elapsed = 0:0:04:07 / Tue Apr 16 16:55:55 2019
GPGPU-Sim uArch: cycles simulated: 184000  inst.: 6291904 (ipc=34.2) sim_rate=25370 (inst/sec) elapsed = 0:0:04:08 / Tue Apr 16 16:55:56 2019
GPGPU-Sim uArch: cycles simulated: 184500  inst.: 6308128 (ipc=34.2) sim_rate=25333 (inst/sec) elapsed = 0:0:04:09 / Tue Apr 16 16:55:57 2019
GPGPU-Sim PTX: 6400000 instructions simulated : ctaid=(5,1,0) tid=(159,0,0)
GPGPU-Sim uArch: cycles simulated: 185500  inst.: 6331328 (ipc=34.1) sim_rate=25325 (inst/sec) elapsed = 0:0:04:10 / Tue Apr 16 16:55:58 2019
GPGPU-Sim uArch: cycles simulated: 186000  inst.: 6348416 (ipc=34.1) sim_rate=25292 (inst/sec) elapsed = 0:0:04:11 / Tue Apr 16 16:55:59 2019
GPGPU-Sim uArch: cycles simulated: 187000  inst.: 6382496 (ipc=34.1) sim_rate=25327 (inst/sec) elapsed = 0:0:04:12 / Tue Apr 16 16:56:00 2019
GPGPU-Sim uArch: cycles simulated: 188000  inst.: 6422112 (ipc=34.2) sim_rate=25383 (inst/sec) elapsed = 0:0:04:13 / Tue Apr 16 16:56:01 2019
GPGPU-Sim PTX: 6500000 instructions simulated : ctaid=(1,2,0) tid=(31,0,0)
GPGPU-Sim uArch: cycles simulated: 188500  inst.: 6438144 (ipc=34.2) sim_rate=25347 (inst/sec) elapsed = 0:0:04:14 / Tue Apr 16 16:56:02 2019
GPGPU-Sim uArch: cycles simulated: 189500  inst.: 6472320 (ipc=34.2) sim_rate=25381 (inst/sec) elapsed = 0:0:04:15 / Tue Apr 16 16:56:03 2019
GPGPU-Sim uArch: cycles simulated: 190000  inst.: 6485792 (ipc=34.1) sim_rate=25335 (inst/sec) elapsed = 0:0:04:16 / Tue Apr 16 16:56:04 2019
GPGPU-Sim uArch: cycles simulated: 191000  inst.: 6508032 (ipc=34.1) sim_rate=25323 (inst/sec) elapsed = 0:0:04:17 / Tue Apr 16 16:56:05 2019
GPGPU-Sim PTX: 6600000 instructions simulated : ctaid=(4,0,0) tid=(95,0,0)
GPGPU-Sim uArch: cycles simulated: 192000  inst.: 6540832 (ipc=34.1) sim_rate=25352 (inst/sec) elapsed = 0:0:04:18 / Tue Apr 16 16:56:06 2019
GPGPU-Sim uArch: cycles simulated: 192500  inst.: 6558336 (ipc=34.1) sim_rate=25321 (inst/sec) elapsed = 0:0:04:19 / Tue Apr 16 16:56:07 2019
GPGPU-Sim uArch: cycles simulated: 193500  inst.: 6590016 (ipc=34.1) sim_rate=25346 (inst/sec) elapsed = 0:0:04:20 / Tue Apr 16 16:56:08 2019
GPGPU-Sim uArch: cycles simulated: 194500  inst.: 6622112 (ipc=34.0) sim_rate=25372 (inst/sec) elapsed = 0:0:04:21 / Tue Apr 16 16:56:09 2019
GPGPU-Sim PTX: 6700000 instructions simulated : ctaid=(1,1,0) tid=(95,0,0)
GPGPU-Sim uArch: cycles simulated: 195000  inst.: 6632320 (ipc=34.0) sim_rate=25314 (inst/sec) elapsed = 0:0:04:22 / Tue Apr 16 16:56:10 2019
GPGPU-Sim uArch: cycles simulated: 196000  inst.: 6660864 (ipc=34.0) sim_rate=25326 (inst/sec) elapsed = 0:0:04:23 / Tue Apr 16 16:56:11 2019
GPGPU-Sim uArch: cycles simulated: 196500  inst.: 6673792 (ipc=34.0) sim_rate=25279 (inst/sec) elapsed = 0:0:04:24 / Tue Apr 16 16:56:12 2019
GPGPU-Sim uArch: cycles simulated: 197500  inst.: 6704512 (ipc=33.9) sim_rate=25300 (inst/sec) elapsed = 0:0:04:25 / Tue Apr 16 16:56:13 2019
GPGPU-Sim PTX: 6800000 instructions simulated : ctaid=(10,1,0) tid=(95,0,0)
GPGPU-Sim uArch: cycles simulated: 198500  inst.: 6739808 (ipc=34.0) sim_rate=25337 (inst/sec) elapsed = 0:0:04:26 / Tue Apr 16 16:56:14 2019
GPGPU-Sim uArch: cycles simulated: 199000  inst.: 6751552 (ipc=33.9) sim_rate=25286 (inst/sec) elapsed = 0:0:04:27 / Tue Apr 16 16:56:15 2019
GPGPU-Sim uArch: cycles simulated: 200000  inst.: 6785344 (ipc=33.9) sim_rate=25318 (inst/sec) elapsed = 0:0:04:28 / Tue Apr 16 16:56:16 2019
GPGPU-Sim uArch: cycles simulated: 200500  inst.: 6796928 (ipc=33.9) sim_rate=25267 (inst/sec) elapsed = 0:0:04:29 / Tue Apr 16 16:56:17 2019
GPGPU-Sim uArch: cycles simulated: 201500  inst.: 6821152 (ipc=33.9) sim_rate=25263 (inst/sec) elapsed = 0:0:04:30 / Tue Apr 16 16:56:18 2019
GPGPU-Sim PTX: 6900000 instructions simulated : ctaid=(4,1,0) tid=(95,0,0)
GPGPU-Sim uArch: cycles simulated: 202500  inst.: 6846240 (ipc=33.8) sim_rate=25262 (inst/sec) elapsed = 0:0:04:31 / Tue Apr 16 16:56:19 2019
GPGPU-Sim uArch: cycles simulated: 203000  inst.: 6860320 (ipc=33.8) sim_rate=25221 (inst/sec) elapsed = 0:0:04:32 / Tue Apr 16 16:56:20 2019
GPGPU-Sim uArch: cycles simulated: 204000  inst.: 6889888 (ipc=33.8) sim_rate=25237 (inst/sec) elapsed = 0:0:04:33 / Tue Apr 16 16:56:21 2019
GPGPU-Sim uArch: cycles simulated: 204500  inst.: 6912544 (ipc=33.8) sim_rate=25228 (inst/sec) elapsed = 0:0:04:34 / Tue Apr 16 16:56:22 2019
GPGPU-Sim PTX: 7000000 instructions simulated : ctaid=(4,0,0) tid=(159,0,0)
GPGPU-Sim uArch: cycles simulated: 205500  inst.: 6945536 (ipc=33.8) sim_rate=25256 (inst/sec) elapsed = 0:0:04:35 / Tue Apr 16 16:56:23 2019
GPGPU-Sim uArch: cycles simulated: 206500  inst.: 6977088 (ipc=33.8) sim_rate=25279 (inst/sec) elapsed = 0:0:04:36 / Tue Apr 16 16:56:24 2019
GPGPU-Sim uArch: cycles simulated: 207000  inst.: 6993984 (ipc=33.8) sim_rate=25249 (inst/sec) elapsed = 0:0:04:37 / Tue Apr 16 16:56:25 2019
GPGPU-Sim PTX: 7100000 instructions simulated : ctaid=(2,0,0) tid=(31,0,0)
GPGPU-Sim uArch: cycles simulated: 208000  inst.: 7028832 (ipc=33.8) sim_rate=25283 (inst/sec) elapsed = 0:0:04:38 / Tue Apr 16 16:56:26 2019
GPGPU-Sim uArch: cycles simulated: 208500  inst.: 7039744 (ipc=33.8) sim_rate=25232 (inst/sec) elapsed = 0:0:04:39 / Tue Apr 16 16:56:27 2019
GPGPU-Sim uArch: cycles simulated: 209500  inst.: 7068032 (ipc=33.7) sim_rate=25242 (inst/sec) elapsed = 0:0:04:40 / Tue Apr 16 16:56:28 2019
GPGPU-Sim uArch: cycles simulated: 210500  inst.: 7095840 (ipc=33.7) sim_rate=25252 (inst/sec) elapsed = 0:0:04:41 / Tue Apr 16 16:56:29 2019
GPGPU-Sim uArch: cycles simulated: 211000  inst.: 7110464 (ipc=33.7) sim_rate=25214 (inst/sec) elapsed = 0:0:04:42 / Tue Apr 16 16:56:30 2019
GPGPU-Sim PTX: 7200000 instructions simulated : ctaid=(7,0,0) tid=(95,0,0)
GPGPU-Sim uArch: cycles simulated: 212000  inst.: 7138560 (ipc=33.7) sim_rate=25224 (inst/sec) elapsed = 0:0:04:43 / Tue Apr 16 16:56:31 2019
GPGPU-Sim uArch: cycles simulated: 212500  inst.: 7154848 (ipc=33.7) sim_rate=25193 (inst/sec) elapsed = 0:0:04:44 / Tue Apr 16 16:56:32 2019
GPGPU-Sim uArch: cycles simulated: 213500  inst.: 7186560 (ipc=33.7) sim_rate=25216 (inst/sec) elapsed = 0:0:04:45 / Tue Apr 16 16:56:33 2019
GPGPU-Sim uArch: cycles simulated: 214000  inst.: 7198592 (ipc=33.6) sim_rate=25169 (inst/sec) elapsed = 0:0:04:46 / Tue Apr 16 16:56:34 2019
GPGPU-Sim PTX: 7300000 instructions simulated : ctaid=(0,1,0) tid=(31,0,0)
GPGPU-Sim uArch: cycles simulated: 215000  inst.: 7226176 (ipc=33.6) sim_rate=25178 (inst/sec) elapsed = 0:0:04:47 / Tue Apr 16 16:56:35 2019
GPGPU-Sim uArch: cycles simulated: 216000  inst.: 7253856 (ipc=33.6) sim_rate=25187 (inst/sec) elapsed = 0:0:04:48 / Tue Apr 16 16:56:36 2019
GPGPU-Sim uArch: cycles simulated: 216500  inst.: 7267328 (ipc=33.6) sim_rate=25146 (inst/sec) elapsed = 0:0:04:49 / Tue Apr 16 16:56:37 2019
GPGPU-Sim uArch: cycles simulated: 217500  inst.: 7302848 (ipc=33.6) sim_rate=25182 (inst/sec) elapsed = 0:0:04:50 / Tue Apr 16 16:56:38 2019
GPGPU-Sim uArch: cycles simulated: 218000  inst.: 7316960 (ipc=33.6) sim_rate=25144 (inst/sec) elapsed = 0:0:04:51 / Tue Apr 16 16:56:39 2019
GPGPU-Sim PTX: 7400000 instructions simulated : ctaid=(8,1,0) tid=(95,0,0)
GPGPU-Sim uArch: cycles simulated: 219000  inst.: 7350784 (ipc=33.6) sim_rate=25173 (inst/sec) elapsed = 0:0:04:52 / Tue Apr 16 16:56:40 2019
GPGPU-Sim uArch: cycles simulated: 219500  inst.: 7368064 (ipc=33.6) sim_rate=25146 (inst/sec) elapsed = 0:0:04:53 / Tue Apr 16 16:56:41 2019
GPGPU-Sim uArch: cycles simulated: 220500  inst.: 7387744 (ipc=33.5) sim_rate=25128 (inst/sec) elapsed = 0:0:04:54 / Tue Apr 16 16:56:42 2019
GPGPU-Sim uArch: cycles simulated: 221500  inst.: 7421728 (ipc=33.5) sim_rate=25158 (inst/sec) elapsed = 0:0:04:55 / Tue Apr 16 16:56:43 2019
GPGPU-Sim PTX: 7500000 instructions simulated : ctaid=(5,0,0) tid=(63,0,0)
GPGPU-Sim uArch: cycles simulated: 222000  inst.: 7435136 (ipc=33.5) sim_rate=25118 (inst/sec) elapsed = 0:0:04:56 / Tue Apr 16 16:56:44 2019
GPGPU-Sim uArch: cycles simulated: 223000  inst.: 7456832 (ipc=33.4) sim_rate=25107 (inst/sec) elapsed = 0:0:04:57 / Tue Apr 16 16:56:45 2019
GPGPU-Sim uArch: cycles simulated: 223500  inst.: 7475584 (ipc=33.4) sim_rate=25085 (inst/sec) elapsed = 0:0:04:58 / Tue Apr 16 16:56:46 2019
GPGPU-Sim uArch: cycles simulated: 224500  inst.: 7512512 (ipc=33.5) sim_rate=25125 (inst/sec) elapsed = 0:0:04:59 / Tue Apr 16 16:56:47 2019
GPGPU-Sim PTX: 7600000 instructions simulated : ctaid=(5,0,0) tid=(63,0,0)
GPGPU-Sim uArch: cycles simulated: 225000  inst.: 7529280 (ipc=33.5) sim_rate=25097 (inst/sec) elapsed = 0:0:05:00 / Tue Apr 16 16:56:48 2019
GPGPU-Sim uArch: cycles simulated: 226000  inst.: 7555552 (ipc=33.4) sim_rate=25101 (inst/sec) elapsed = 0:0:05:01 / Tue Apr 16 16:56:49 2019
GPGPU-Sim uArch: cycles simulated: 226500  inst.: 7569632 (ipc=33.4) sim_rate=25065 (inst/sec) elapsed = 0:0:05:02 / Tue Apr 16 16:56:50 2019
GPGPU-Sim uArch: cycles simulated: 227500  inst.: 7598144 (ipc=33.4) sim_rate=25076 (inst/sec) elapsed = 0:0:05:03 / Tue Apr 16 16:56:51 2019
GPGPU-Sim PTX: 7700000 instructions simulated : ctaid=(4,0,0) tid=(223,0,0)
GPGPU-Sim uArch: cycles simulated: 228500  inst.: 7631776 (ipc=33.4) sim_rate=25104 (inst/sec) elapsed = 0:0:05:04 / Tue Apr 16 16:56:52 2019
GPGPU-Sim uArch: cycles simulated: 229000  inst.: 7645408 (ipc=33.4) sim_rate=25066 (inst/sec) elapsed = 0:0:05:05 / Tue Apr 16 16:56:53 2019
GPGPU-Sim uArch: cycles simulated: 230000  inst.: 7677632 (ipc=33.4) sim_rate=25090 (inst/sec) elapsed = 0:0:05:06 / Tue Apr 16 16:56:54 2019
GPGPU-Sim uArch: cycles simulated: 230500  inst.: 7689952 (ipc=33.4) sim_rate=25048 (inst/sec) elapsed = 0:0:05:07 / Tue Apr 16 16:56:55 2019
GPGPU-Sim PTX: 7800000 instructions simulated : ctaid=(1,2,0) tid=(159,0,0)
GPGPU-Sim uArch: cycles simulated: 231500  inst.: 7727744 (ipc=33.4) sim_rate=25090 (inst/sec) elapsed = 0:0:05:08 / Tue Apr 16 16:56:56 2019
GPGPU-Sim uArch: cycles simulated: 232000  inst.: 7737568 (ipc=33.4) sim_rate=25040 (inst/sec) elapsed = 0:0:05:09 / Tue Apr 16 16:56:57 2019
GPGPU-Sim uArch: cycles simulated: 233000  inst.: 7759520 (ipc=33.3) sim_rate=25030 (inst/sec) elapsed = 0:0:05:10 / Tue Apr 16 16:56:58 2019
GPGPU-Sim uArch: cycles simulated: 234000  inst.: 7802592 (ipc=33.3) sim_rate=25088 (inst/sec) elapsed = 0:0:05:11 / Tue Apr 16 16:56:59 2019
GPGPU-Sim PTX: 7900000 instructions simulated : ctaid=(0,2,0) tid=(31,0,0)
GPGPU-Sim uArch: cycles simulated: 234500  inst.: 7824320 (ipc=33.4) sim_rate=25077 (inst/sec) elapsed = 0:0:05:12 / Tue Apr 16 16:57:00 2019
GPGPU-Sim uArch: cycles simulated: 235500  inst.: 7849856 (ipc=33.3) sim_rate=25079 (inst/sec) elapsed = 0:0:05:13 / Tue Apr 16 16:57:01 2019
GPGPU-Sim uArch: cycles simulated: 236000  inst.: 7862240 (ipc=33.3) sim_rate=25038 (inst/sec) elapsed = 0:0:05:14 / Tue Apr 16 16:57:02 2019
GPGPU-Sim uArch: cycles simulated: 237000  inst.: 7887744 (ipc=33.3) sim_rate=25040 (inst/sec) elapsed = 0:0:05:15 / Tue Apr 16 16:57:03 2019
[...]
dram[5]:  1.196205  1.195128  1.192757  1.191848  1.189953  1.185166  1.196234  1.195327  1.192070  1.196131  1.196038  1.192378  1.197962  1.195258  1.197150  1.195006 
average row locality = 3248145/2732747 = 1.188601
number of total memory accesses made:
dram[0]:         0         0         0         0         0         0         0         0         0         0         0         0         0         0         0         0 
dram[1]:         0         0         0         0         0         0         0         0         0         0         0         0         0         0         0         0 
dram[2]:         0         0         0         0         0         0         0         0         0         0         0         0         0         0         0         0 
dram[3]:         0         0         0         0         0         0         0         0         0         0         0         0         0         0         0         0 
dram[4]:         0         0         0         0         0         0         0         0         0         0         0         0         0         0         0         0 
dram[5]:         0         0         0         0         0         0         0         0         0         0         0         0         0         0         0         0 
total accesses: 0
min_bank_accesses = 0!
min_chip_accesses = 0!
number of total read accesses:
dram[0]:     33295     32992     33805     33438     33226     33187     35151     34473     33915     33997     34251     33922     32562     32382     33693     33179 
dram[1]:     33176     33133     33139     33593     33482     33513     34443     34640     34116     33902     34071     34226     32583     32525     33475     33594 
dram[2]:     33571     33803     33849     34380     33835     34327     34815     35478     34440     34710     34244     34834     33277     33358     33714     34476 
dram[3]:     33349     33318     33352     33682     33577     33757     34428     35147     34204     34212     34008     34218     32899     33010     33212     34075 
dram[4]:     33474     33316     33764     33730     33705     34022     34511     35006     34418     34305     34310     34402     33108     32942     33433     33647 
dram[5]:     33541     33445     33891     33392     33659     34083     34881     34331     34365     34506     34416     33761     33130     33148     33874     33199 
total reads: 3246353
bank skew: 35478/32382 = 1.10
chip skew: 547111/537468 = 1.02
number of total write accesses:
dram[0]:        64        64         0         0         0         0         0         0         0         0         0         0        20        20        64        64 
dram[1]:        64        64         0         0         0         0         0         0         0         0         0         0        20        20        64        64 
dram[2]:        64        64         0         0         0         0         0         0         0         0         0         0        20        24        64        64 
dram[3]:        64        64         0         0         0         0         0         0         0         0         0         0        20        24        64        64 
dram[4]:        64        64         0         0         0         0         0         0         0         0         0         0        20        24        64        64 
dram[5]:        64        64         0         0         0         0         0         0         0         0         0         0        20        24        64        64 
total reads: 1792
min_bank_accesses = 0!
chip skew: 300/296 = 1.01
average mf latency per bank:
dram[0]:       2178      2121      2673      2570      2165      2116      2152      2084      2158      2122      2131      2080      2211      2162      2170      2121
dram[1]:       2245      2182      2887      2658      2231      2165      2214      2163      2193      2214      2203      2124      2268      2230      2232      2177
dram[2]:       2188      2175      2746      2508      2224      2138      2163      2115      2187      2115      2156      2090      2229      2161      2175      2091
dram[3]:       2126      2058      2665      2418      2162      2071      2119      2021      2136      2031      2098      2034      2164      2067      2155      2031
dram[4]:       2121      1999      2547      2278      2093      1990      2106      1963      2089      2003      2046      1940      2112      2033      2082      1974
dram[5]:       2128      1886      2590      1887      2125      1879      2087      1890      2111      1882      2074      1851      2154      1906      2098      1919
maximum mf latency per bank:
dram[0]:       1068      1086      1035      1080      1069      1067      1071      1072      1043      1086      1029      1111      1010      1146      1141      1094
dram[1]:       1096      1040      1098      1083      1056      1084      1127      1060      1101      1114      1145      1091      1065      1072      1062      1059
dram[2]:       1102      1143      1089      1037      1062      1083      1086      1116      1190      1100      1116      1063      1142      1099      1100      1093
dram[3]:       1054      1104      1088      1076      1127      1063      1098      1112      1072      1054      1129      1059      1137      1099      1099      1120
dram[4]:       1035      1042      1062      1036      1170      1074      1092      1036      1054      1080      1124      1002      1070      1058      1037      1013
dram[5]:       1073       978      1100      1009      1161      1001      1098       970      1058       990      1024      1016      1099       998      1071      1058

Number of Memory Banks Accessed per Memory Operation per Warp (from 0):
0	0	0	0	0	0	0	0	0	0	0	0	0	0	0	0	0	0	0	0	0	0	0	0	0	0	0	0	0	0	0	0	0	0	0	0	0	0	0	0	0	0	0	0	0	0	0	0	0	0	0	0	0	0	0	0	0	0	0	0	0	0	0	0	0	0	0	0	0	0	0	0	0	0	0	0	0	0	0	0	0	0	0	0	0	0	0	0	0	0	0	0	0	0	0	0	
Average # of Memory Banks Accessed per Memory Operation per Warp=-nan

position of mrq chosen
0	0	0	0	0	0	0	0	0	0	0	0	0	0	0	0	

average position of mrq chosen = -nan
Memory Partition 0: 
Cache L2_bank_000:
MSHR contents

Cache L2_bank_001:
MSHR contents

In Dram Latency Queue (total = 0): 
DRAM[0]: 16 bks, busW=4 BL=8 CL=12, tRRD=2 tCCD=6, tRCD=12 tRAS=28 tRP=12 tRC=40
n_cmd=20654167 n_nop=18674467 n_act=452094 n_pre=452078 n_req=537764 n_rd=1074936 n_write=592 bw_util=0.1041
n_activity=12623122 dram_eff=0.1704
bk0: 66590a 19747151i bk1: 65984a 19759442i bk2: 67610a 19731219i bk3: 66876a 19742409i bk4: 66452a 19744472i bk5: 66374a 19747916i bk6: 70302a 19689844i bk7: 68946a 19712006i bk8: 67830a 19728404i bk9: 67994a 19728554i bk10: 68502a 19714273i bk11: 67844a 19728014i bk12: 65124a 19762404i bk13: 64764a 19769759i bk14: 67386a 19727457i bk15: 66358a 19745212i 
dram_util_bins: 0 0 0 0 0 0 0 0 0 0
dram_eff_bins: 0 0 0 0 0 0 0 0 0 0
mrqq: max=16 avg=0.0488716
Memory Partition 1: 
Cache L2_bank_002:
MSHR contents

Cache L2_bank_003:
MSHR contents

In Dram Latency Queue (total = 0): 
DRAM[1]: 16 bks, busW=4 BL=8 CL=12, tRRD=2 tCCD=6, tRCD=12 tRAS=28 tRP=12 tRC=40
n_cmd=20654167 n_nop=18673155 n_act=452607 n_pre=452591 n_req=537907 n_rd=1075222 n_write=592 bw_util=0.1042
n_activity=12704392 dram_eff=0.1694
bk0: 66352a 19750772i bk1: 66266a 19753568i bk2: 66278a 19750094i bk3: 67186a 19743071i bk4: 66964a 19735710i bk5: 67026a 19736553i bk6: 68886a 19708729i bk7: 69280a 19706160i bk8: 68232a 19722480i bk9: 67804a 19728133i bk10: 68142a 19723279i bk11: 68452a 19718487i bk12: 65166a 19764297i bk13: 65050a 19766531i bk14: 66950a 19741009i bk15: 67188a 19739408i 
dram_util_bins: 0 0 0 0 0 0 0 0 0 0
dram_eff_bins: 0 0 0 0 0 0 0 0 0 0
mrqq: max=16 avg=0.0461881
Memory Partition 2: 
Cache L2_bank_004:
MSHR contents

Cache L2_bank_005:
MSHR contents

In Dram Latency Queue (total = 0): 
DRAM[2]: 16 bks, busW=4 BL=8 CL=12, tRRD=2 tCCD=6, tRCD=12 tRAS=28 tRP=12 tRC=40
n_cmd=20654167 n_nop=18635483 n_act=461939 n_pre=461923 n_req=547411 n_rd=1094222 n_write=600 bw_util=0.106
n_activity=12641273 dram_eff=0.1732
bk0: 67142a 19732880i bk1: 67606a 19730616i bk2: 67698a 19722072i bk3: 68760a 19705549i bk4: 67670a 19720169i bk5: 68654a 19707757i bk6: 69630a 19688805i bk7: 70956a 19674158i bk8: 68880a 19704955i bk9: 69420a 19698033i bk10: 68488a 19705103i bk11: 69668a 19693601i bk12: 66554a 19732286i bk13: 66716a 19730811i bk14: 67428a 19718910i bk15: 68952a 19698782i 
dram_util_bins: 0 0 0 0 0 0 0 0 0 0
dram_eff_bins: 0 0 0 0 0 0 0 0 0 0
mrqq: max=16 avg=0.0564638
Memory Partition 3: 
Cache L2_bank_006:
MSHR contents

Cache L2_bank_007:
MSHR contents

In Dram Latency Queue (total = 0): 
DRAM[3]: 16 bks, busW=4 BL=8 CL=12, tRRD=2 tCCD=6, tRCD=12 tRAS=28 tRP=12 tRC=40
n_cmd=20654167 n_nop=18662509 n_act=455089 n_pre=455073 n_req=540748 n_rd=1080896 n_write=600 bw_util=0.1047
n_activity=12573991 dram_eff=0.172
bk0: 66698a 19742274i bk1: 66636a 19746994i bk2: 66704a 19739425i bk3: 67364a 19732581i bk4: 67154a 19731878i bk5: 67514a 19729828i bk6: 68856a 19709941i bk7: 70294a 19687988i bk8: 68408a 19715163i bk9: 68424a 19718788i bk10: 68016a 19721570i bk11: 68436a 19715917i bk12: 65798a 19750259i bk13: 66020a 19750432i bk14: 66424a 19740247i bk15: 68150a 19721318i 
dram_util_bins: 0 0 0 0 0 0 0 0 0 0
dram_eff_bins: 0 0 0 0 0 0 0 0 0 0
mrqq: max=16 avg=0.0499825
Memory Partition 4: 
Cache L2_bank_008:
MSHR contents

Cache L2_bank_009:
MSHR contents

In Dram Latency Queue (total = 0): 
DRAM[4]: 16 bks, busW=4 BL=8 CL=12, tRRD=2 tCCD=6, tRCD=12 tRAS=28 tRP=12 tRC=40
n_cmd=20654167 n_nop=18655079 n_act=457159 n_pre=457143 n_req=542393 n_rd=1084186 n_write=600 bw_util=0.105
n_activity=12527074 dram_eff=0.1732
bk0: 66948a 19737786i bk1: 66632a 19745871i bk2: 67528a 19725790i bk3: 67460a 19727276i bk4: 67410a 19725749i bk5: 68044a 19719134i bk6: 69022a 19699441i bk7: 70012a 19690222i bk8: 68836a 19706678i bk9: 68610a 19712438i bk10: 68620a 19708927i bk11: 68804a 19707136i bk12: 66216a 19739601i bk13: 65884a 19747860i bk14: 66866a 19725079i bk15: 67294a 19726235i 
dram_util_bins: 0 0 0 0 0 0 0 0 0 0
dram_eff_bins: 0 0 0 0 0 0 0 0 0 0
mrqq: max=16 avg=0.0526029
Memory Partition 5: 
Cache L2_bank_010:
MSHR contents

Cache L2_bank_011:
MSHR contents
MSHR: tag=0x81e4b380, atomic=0 1 entries : 0x7fda4566a370 :  mf: uid=229386940, sid00:w15, part=5, addr=0x81e4b380, load , size=128, unknown  status = IN_PARTITION_DRAM (15647094), 

In Dram Latency Queue (total = 0): 
DRAM[5]: 16 bks, busW=4 BL=8 CL=12, tRRD=2 tCCD=6, tRCD=12 tRAS=28 tRP=12 tRC=40
n_cmd=20654167 n_nop=18662619 n_act=453860 n_pre=453844 n_req=541922 n_rd=1083244 n_write=600 bw_util=0.105
n_activity=12607960 dram_eff=0.1719
bk0: 67082a 19743282i bk1: 66890a 19747252i bk2: 67782a 19732774i bk3: 66784a 19747790i bk4: 67318a 19735806i bk5: 68166a 19722523i bk6: 69762a 19703048i bk7: 68662a 19719275i bk8: 68730a 19717747i bk9: 69012a 19718678i bk10: 68832a 19717547i bk11: 67522a 19734479i bk12: 66260a 19750842i bk13: 66296a 19753112i bk14: 67748a 19729568i bk15: 66398a 19747975i 
dram_util_bins: 0 0 0 0 0 0 0 0 0 0
dram_eff_bins: 0 0 0 0 0 0 0 0 0 0
mrqq: max=16 avg=0.0462263

========= L2 cache stats =========
L2_cache_bank[0]: Access = 1616408, Miss = 269898, Miss_rate = 0.167, Pending_hits = 15, Reservation_fails = 2022
L2_cache_bank[1]: Access = 1606322, Miss = 267570, Miss_rate = 0.167, Pending_hits = 8, Reservation_fails = 1430
L2_cache_bank[2]: Access = 1625275, Miss = 268485, Miss_rate = 0.165, Pending_hits = 14, Reservation_fails = 231
L2_cache_bank[3]: Access = 1617071, Miss = 269126, Miss_rate = 0.166, Pending_hits = 7, Reservation_fails = 28
L2_cache_bank[4]: Access = 1615898, Miss = 271745, Miss_rate = 0.168, Pending_hits = 12, Reservation_fails = 1183
L2_cache_bank[5]: Access = 1610420, Miss = 275366, Miss_rate = 0.171, Pending_hits = 5, Reservation_fails = 1928
L2_cache_bank[6]: Access = 1607104, Miss = 269029, Miss_rate = 0.167, Pending_hits = 8, Reservation_fails = 57
L2_cache_bank[7]: Access = 1589671, Miss = 271419, Miss_rate = 0.171, Pending_hits = 5, Reservation_fails = 36
L2_cache_bank[8]: Access = 1606584, Miss = 270723, Miss_rate = 0.169, Pending_hits = 9, Reservation_fails = 354
L2_cache_bank[9]: Access = 1586151, Miss = 271370, Miss_rate = 0.171, Pending_hits = 5, Reservation_fails = 168
L2_cache_bank[10]: Access = 1614659, Miss = 271757, Miss_rate = 0.168, Pending_hits = 5, Reservation_fails = 42
L2_cache_bank[11]: Access = 1563092, Miss = 269865, Miss_rate = 0.173, Pending_hits = 0, Reservation_fails = 46
L2_total_cache_accesses = 19258655
L2_total_cache_misses = 3246353
L2_total_cache_miss_rate = 0.1686
L2_total_cache_pending_hits = 93
L2_total_cache_reservation_fails = 7525
L2_total_cache_breakdown:
	L2_cache_stats_breakdown[GLOBAL_ACC_R][HIT] = 16012141
	L2_cache_stats_breakdown[GLOBAL_ACC_R][HIT_RESERVED] = 80
	L2_cache_stats_breakdown[GLOBAL_ACC_R][MISS] = 3244552
	L2_cache_stats_breakdown[GLOBAL_ACC_R][RESERVATION_FAIL] = 7111
	L2_cache_stats_breakdown[CONST_ACC_R][HIT] = 11
	L2_cache_stats_breakdown[CONST_ACC_R][HIT_RESERVED] = 3
	L2_cache_stats_breakdown[CONST_ACC_R][MISS] = 1
	L2_cache_stats_breakdown[CONST_ACC_R][RESERVATION_FAIL] = 95
	L2_cache_stats_breakdown[GLOBAL_ACC_W][MISS] = 1792
	L2_cache_stats_breakdown[INST_ACC_R][HIT] = 57
	L2_cache_stats_breakdown[INST_ACC_R][HIT_RESERVED] = 10
	L2_cache_stats_breakdown[INST_ACC_R][MISS] = 8
	L2_cache_stats_breakdown[INST_ACC_R][RESERVATION_FAIL] = 319
L2_cache_data_port_util = 0.341
L2_cache_fill_port_util = 0.069

icnt_total_pkts_mem_to_simt=96286077
icnt_total_pkts_simt_to_mem=19265823
LD_mem_lat_dist  0 0 0 0 0 0 0 0 0 0 0 0 0 0 0 0 0 0 0 0 0 0 0 0 0 0 0
ST_mem_lat_dist  0 0 0 0 0 0 0 0 0 0 0 0 0 0 0 0 0 0 0 0 0 0 0 0 0 0 0
----------------------------Interconnect-DETAILS--------------------------------
Class 0:
Packet latency average = 41.9302
	minimum = 6
	maximum = 630
Network latency average = 31.0065
	minimum = 6
	maximum = 559
Slowest packet = 19298544
Flit latency average = 19.5351
	minimum = 6
	maximum = 559
Slowest flit = 77280066
Fragmentation average = 9.48889e-05
	minimum = 0
	maximum = 263
Injected packet rate average = 0.0911723
	minimum = 0.0759364 (at node 5)
	maximum = 0.103861 (at node 17)
Accepted packet rate average = 0.0911723
	minimum = 0.0759364 (at node 5)
	maximum = 0.103861 (at node 17)
Injected flit rate average = 0.273517
	minimum = 0.0759651 (at node 5)
	maximum = 0.519266 (at node 17)
Accepted flit rate average= 0.273517
	minimum = 0.0998766 (at node 26)
	maximum = 0.446265 (at node 0)
Injected packet length average = 3
Accepted packet length average = 3
Total in-flight flits = 0 (0 measured)
====== Overall Traffic Statistics ======
====== Traffic class 0 ======
Packet latency average = 41.7381 (2 samples)
	minimum = 6 (2 samples)
	maximum = 652 (2 samples)
Network latency average = 30.8746 (2 samples)
	minimum = 6 (2 samples)
	maximum = 591.5 (2 samples)
Flit latency average = 19.4951 (2 samples)
	minimum = 6 (2 samples)
	maximum = 591.5 (2 samples)
Fragmentation average = 0.000121805 (2 samples)
	minimum = 0 (2 samples)
	maximum = 305.5 (2 samples)
Injected packet rate average = 0.0911714 (2 samples)
	minimum = 0.0758082 (2 samples)
	maximum = 0.103871 (2 samples)
Accepted packet rate average = 0.0911714 (2 samples)
	minimum = 0.0758082 (2 samples)
	maximum = 0.103871 (2 samples)
Injected flit rate average = 0.273514 (2 samples)
	minimum = 0.0758369 (2 samples)
	maximum = 0.519316 (2 samples)
Accepted flit rate average = 0.273514 (2 samples)
	minimum = 0.0999354 (2 samples)
	maximum = 0.445726 (2 samples)
Injected packet size average = 3 (2 samples)
Accepted packet size average = 3 (2 samples)
Hops average = 1 (2 samples)
----------------------------END-of-Interconnect-DETAILS-------------------------


gpgpu_simulation_time = 0 days, 3 hrs, 8 min, 23 sec (11303 sec)
gpgpu_simulation_rate = 42633 (inst/sec)
gpgpu_simulation_rate = 1384 (cycle/sec)
GPGPU-Sim: synchronize waiting for inactive GPU simulation
GPGPU-Sim API: Stream Manager State
GPGPU-Sim: detected inactive GPU simulation thread
iterated 2 times

================= Centroid Coordinates =================
0: 1.23 613.61 527.61 0.00 0.00 0.01 0.00 0.00 0.00 0.00 0.03 0.01 0.00 0.00 0.00 8.15 11.06 0.00 0.00 0.00 0.00 0.99 0.01 0.22 139.44 193.37 0.83 0.02 0.06 0.01 0.00 0.00 0.00 0.00 1.00 1.23 613.61 527.61 0.00 0.00 0.01 0.00 0.00 0.00 0.00 0.03 0.01 0.00 0.00 0.00 8.15 11.06 0.00 0.00 0.00 0.00 0.99 0.01 0.22 139.44 193.37 0.83 0.02 0.06 0.01 0.00 0.00 0.00 0.00 1.23 613.61 527.61 0.00 0.00 0.01 0.00 0.00 0.00 0.00 0.03 0.01 0.00 0.00 0.00 8.15 11.06 0.00 0.00 0.00 0.00 0.99 0.01 0.22 139.44 193.37 0.83 0.02 0.06 0.01 0.00 0.00 0.00 0.00 1.00 1.23 613.61 527.61 0.00 0.00 0.01 0.00 0.00 0.00 0.00 0.03 0.01 0.00 0.00 0.00 8.15 11.06 0.00 0.00 0.00 0.00 0.99 0.01 0.22 139.44 193.37 0.83 0.02 0.06 0.01 0.00 0.00 0.00 0.00

1: 1.45 15177.44 214.67 0.00 0.00 0.01 0.00 0.00 0.00 0.00 0.00 0.02 0.01 0.02 0.00 4.59 5.07 0.00 0.01 0.00 0.00 0.98 0.03 0.25 129.85 98.10 0.52 0.05 0.20 0.01 0.00 0.00 0.00 0.00 1.00 1.45 15177.44 214.67 0.00 0.00 0.01 0.00 0.00 0.00 0.00 0.00 0.02 0.01 0.02 0.00 4.59 5.07 0.00 0.01 0.00 0.00 0.98 0.03 0.25 129.85 98.10 0.52 0.05 0.20 0.01 0.00 0.00 0.00 0.00 1.45 15177.44 214.67 0.00 0.00 0.01 0.00 0.00 0.00 0.00 0.00 0.02 0.01 0.02 0.00 4.59 5.07 0.00 0.01 0.00 0.00 0.98 0.03 0.25 129.85 98.10 0.52 0.05 0.20 0.01 0.00 0.00 0.00 0.00 1.00 1.45 15177.44 214.67 0.00 0.00 0.01 0.00 0.00 0.00 0.00 0.00 0.02 0.01 0.02 0.00 4.59 5.07 0.00 0.01 0.00 0.00 0.98 0.03 0.25 129.85 98.10 0.52 0.05 0.20 0.01 0.00 0.00 0.00 0.00

2: 3.74 600.16 40.36 0.01 0.00 0.00 0.00 0.00 0.00 0.00 0.00 0.00 0.00 0.00 0.00 338.62 287.90 0.24 0.24 0.03 0.03 0.75 0.04 0.03 240.64 180.98 0.72 0.05 0.58 0.00 0.24 0.24 0.03 0.03 1.00 3.74 600.16 40.36 0.01 0.00 0.00 0.00 0.00 0.00 0.00 0.00 0.00 0.00 0.00 0.00 338.62 287.90 0.24 0.24 0.03 0.03 0.75 0.04 0.03 240.64 180.98 0.72 0.05 0.58 0.00 0.24 0.24 0.03 0.03 3.74 600.16 40.36 0.01 0.00 0.00 0.00 0.00 0.00 0.00 0.00 0.00 0.00 0.00 0.00 338.62 287.90 0.24 0.24 0.03 0.03 0.75 0.04 0.03 240.64 180.98 0.72 0.05 0.58 0.00 0.24 0.24 0.03 0.03 1.00 3.74 600.16 40.36 0.01 0.00 0.00 0.00 0.00 0.00 0.00 0.00 0.00 0.00 0.00 0.00 338.62 287.90 0.24 0.24 0.03 0.03 0.75 0.04 0.03 240.64 180.98 0.72 0.05 0.58 0.00 0.24 0.24 0.03 0.03

3: 21.48 303.12 20528.08 0.00 0.00 0.03 0.00 0.16 0.00 0.00 0.17 0.01 0.00 0.00 0.00 7.59 11.10 0.00 0.01 0.00 0.00 1.00 0.00 0.13 130.51 246.12 0.99 0.00 0.06 0.02 0.00 0.00 0.00 0.00 1.00 21.48 303.12 20528.08 0.00 0.00 0.03 0.00 0.16 0.00 0.00 0.17 0.01 0.00 0.00 0.00 7.59 11.10 0.00 0.01 0.00 0.00 1.00 0.00 0.13 130.51 246.12 0.99 0.00 0.06 0.02 0.00 0.00 0.00 0.00 21.48 303.12 20528.08 0.00 0.00 0.03 0.00 0.16 0.00 0.00 0.17 0.01 0.00 0.00 0.00 7.59 11.10 0.00 0.01 0.00 0.00 1.00 0.00 0.13 130.51 246.12 0.99 0.00 0.06 0.02 0.00 0.00 0.00 0.00 1.00 21.48 303.12 20528.08 0.00 0.00 0.03 0.00 0.16 0.00 0.00 0.17 0.01 0.00 0.00 0.00 7.59 11.10 0.00 0.01 0.00 0.00 1.00 0.00 0.13 130.51 246.12 0.99 0.00 0.06 0.02 0.00 0.00 0.00 0.00

4: 0.31 264.14 2561.85 0.00 0.00 0.06 0.00 0.00 0.00 0.00 0.00 0.00 0.00 0.01 0.00 9.81 13.92 0.00 0.00 0.00 0.00 1.00 0.00 0.10 132.64 245.89 0.99 0.00 0.05 0.02 0.00 0.00 0.00 0.00 1.00 0.31 264.14 2561.85 0.00 0.00 0.06 0.00 0.00 0.00 0.00 0.00 0.00 0.00 0.01 0.00 9.81 13.92 0.00 0.00 0.00 0.00 1.00 0.00 0.10 132.64 245.89 0.99 0.00 0.05 0.02 0.00 0.00 0.00 0.00 0.31 264.14 2561.85 0.00 0.00 0.06 0.00 0.00 0.00 0.00 0.00 0.00 0.00 0.01 0.00 9.81 13.92 0.00 0.00 0.00 0.00 1.00 0.00 0.10 132.64 245.89 0.99 0.00 0.05 0.02 0.00 0.00 0.00 0.00 1.00 0.31 264.14 2561.85 0.00 0.00 0.06 0.00 0.00 0.00 0.00 0.00 0.00 0.00 0.01 0.00 9.81 13.92 0.00 0.00 0.00 0.00 1.00 0.00 0.10 132.64 245.89 0.99 0.00 0.05 0.02 0.00 0.00 0.00 0.00

Number of Iteration: 1
Time for I/O: 0.00000sec
Time for Entire Clustering: 0.00000sec
Root Mean Squared Error: 55443.000
