

        *** GPGPU-Sim Simulator Version 3.2.2  [build 0] ***


GPGPU-Sim PTX: simulation mode 0 (can change with PTX_SIM_MODE_FUNC environment variable:
               1=functional simulation only, 0=detailed performance simulator)
GPGPU-Sim: Configuration options:

-network_mode                           1 # Interconnection network mode
-inter_config_file   config_fermi_islip.icnt # Interconnection network config file
-gpgpu_ptx_use_cuobjdump                    1 # Use cuobjdump to extract ptx and sass from binaries
-gpgpu_experimental_lib_support                    0 # Try to extract code from cuda libraries [Broken because of unknown cudaGetExportTable]
-gpgpu_ptx_convert_to_ptxplus                    0 # Convert SASS (native ISA) to ptxplus and run ptxplus
-gpgpu_ptx_force_max_capability                   20 # Force maximum compute capability
-gpgpu_ptx_inst_debug_to_file                    0 # Dump executed instructions' debug information to file
-gpgpu_ptx_inst_debug_file       inst_debug.txt # Executed instructions' debug output file
-gpgpu_ptx_inst_debug_thread_uid                    1 # Thread UID for executed instructions' debug output
-gpgpu_simd_model                       1 # 1 = post-dominator
-gpgpu_shader_core_pipeline              1536:32 # shader core pipeline config, i.e., {<nthread>:<warpsize>}
-gpgpu_tex_cache:l1  4:128:24,L:R:m:N:L,F:128:4,128:2 # per-shader L1 texture cache  (READ-ONLY) config  {<nsets>:<bsize>:<assoc>,<rep>:<wr>:<alloc>:<wr_alloc>,<mshr>:<N>:<merge>,<mq>:<rf>}
-gpgpu_const_cache:l1 64:64:2,L:R:f:N:L,A:2:32,4 # per-shader L1 constant memory cache  (READ-ONLY) config  {<nsets>:<bsize>:<assoc>,<rep>:<wr>:<alloc>:<wr_alloc>,<mshr>:<N>:<merge>,<mq>} 
-gpgpu_cache:il1     4:128:4,L:R:f:N:L,A:2:32,4 # shader L1 instruction cache config  {<nsets>:<bsize>:<assoc>,<rep>:<wr>:<alloc>:<wr_alloc>,<mshr>:<N>:<merge>,<mq>} 
-gpgpu_cache:dl1     32:128:4,L:L:m:N:H,A:32:8,8 # per-shader L1 data cache config  {<nsets>:<bsize>:<assoc>,<rep>:<wr>:<alloc>:<wr_alloc>,<mshr>:<N>:<merge>,<mq> | none}
-gpgpu_cache:dl1PrefL1                 none # per-shader L1 data cache config  {<nsets>:<bsize>:<assoc>,<rep>:<wr>:<alloc>:<wr_alloc>,<mshr>:<N>:<merge>,<mq> | none}
-gpgpu_cache:dl1PreShared                 none # per-shader L1 data cache config  {<nsets>:<bsize>:<assoc>,<rep>:<wr>:<alloc>:<wr_alloc>,<mshr>:<N>:<merge>,<mq> | none}
-gmem_skip_L1D                          0 # global memory access skip L1D cache (implements -Xptxas -dlcm=cg, default=no skip)
-gpgpu_perfect_mem                      0 # enable perfect memory mode (no cache miss)
-n_regfile_gating_group                    4 # group of lanes that should be read/written together)
-gpgpu_clock_gated_reg_file                    0 # enable clock gated reg file for power calculations
-gpgpu_clock_gated_lanes                    0 # enable clock gated lanes for power calculations
-gpgpu_shader_registers                32768 # Number of registers per shader core. Limits number of concurrent CTAs. (default 8192)
-gpgpu_shader_cta                       8 # Maximum number of concurrent CTAs in shader (default 8)
-gpgpu_num_cta_barriers                   16 # Maximum number of named barriers per CTA (default 16)
-gpgpu_n_clusters                      15 # number of processing clusters
-gpgpu_n_cores_per_cluster                    1 # number of simd cores per cluster
-gpgpu_n_cluster_ejection_buffer_size                    8 # number of packets in ejection buffer
-gpgpu_n_ldst_response_buffer_size                    2 # number of response packets in ld/st unit ejection buffer
-gpgpu_shmem_size                   16384 # Size of shared memory per shader core (default 16kB)
-gpgpu_shmem_size                   49152 # Size of shared memory per shader core (default 16kB)
-gpgpu_shmem_size_PrefL1                16384 # Size of shared memory per shader core (default 16kB)
-gpgpu_shmem_size_PrefShared                16384 # Size of shared memory per shader core (default 16kB)
-gpgpu_shmem_num_banks                   32 # Number of banks in the shared memory in each shader core (default 16)
-gpgpu_shmem_limited_broadcast                    0 # Limit shared memory to do one broadcast per cycle (default on)
-gpgpu_shmem_warp_parts                    1 # Number of portions a warp is divided into for shared memory bank conflict check 
-gpgpu_warpdistro_shader                   -1 # Specify which shader core to collect the warp size distribution from
-gpgpu_warp_issue_shader                    0 # Specify which shader core to collect the warp issue distribution from
-gpgpu_local_mem_map                    1 # Mapping from local memory space address to simulated GPU physical address space (default = enabled)
-gpgpu_num_reg_banks                   16 # Number of register banks (default = 8)
-gpgpu_reg_bank_use_warp_id                    0 # Use warp ID in mapping registers to banks (default = off)
-gpgpu_operand_collector_num_units_sp                    6 # number of collector units (default = 4)
-gpgpu_operand_collector_num_units_sfu                    8 # number of collector units (default = 4)
-gpgpu_operand_collector_num_units_mem                    2 # number of collector units (default = 2)
-gpgpu_operand_collector_num_units_gen                    0 # number of collector units (default = 0)
-gpgpu_operand_collector_num_in_ports_sp                    2 # number of collector unit in ports (default = 1)
-gpgpu_operand_collector_num_in_ports_sfu                    1 # number of collector unit in ports (default = 1)
-gpgpu_operand_collector_num_in_ports_mem                    1 # number of collector unit in ports (default = 1)
-gpgpu_operand_collector_num_in_ports_gen                    0 # number of collector unit in ports (default = 0)
-gpgpu_operand_collector_num_out_ports_sp                    2 # number of collector unit in ports (default = 1)
-gpgpu_operand_collector_num_out_ports_sfu                    1 # number of collector unit in ports (default = 1)
-gpgpu_operand_collector_num_out_ports_mem                    1 # number of collector unit in ports (default = 1)
-gpgpu_operand_collector_num_out_ports_gen                    0 # number of collector unit in ports (default = 0)
-gpgpu_coalesce_arch                   13 # Coalescing arch (default = 13, anything else is off for now)
-gpgpu_num_sched_per_core                    2 # Number of warp schedulers per core
-gpgpu_max_insn_issue_per_warp                    1 # Max number of instructions that can be issued per warp in one cycle by scheduler
-gpgpu_simt_core_sim_order                    1 # Select the simulation order of cores in a cluster (0=Fix, 1=Round-Robin)
-gpgpu_pipeline_widths        2,1,1,2,1,1,2 # Pipeline widths ID_OC_SP,ID_OC_SFU,ID_OC_MEM,OC_EX_SP,OC_EX_SFU,OC_EX_MEM,EX_WB
-gpgpu_num_sp_units                     2 # Number of SP units (default=1)
-gpgpu_num_sfu_units                    1 # Number of SF units (default=1)
-gpgpu_num_mem_units                    1 # Number if ldst units (default=1) WARNING: not hooked up to anything
-gpgpu_scheduler                      gto # Scheduler configuration: < lrr | gto | two_level_active > If two_level_active:<num_active_warps>:<inner_prioritization>:<outer_prioritization>For complete list of prioritization values see shader.h enum scheduler_prioritization_typeDefault: gto
-gpgpu_dram_scheduler                    1 # 0 = fifo, 1 = FR-FCFS (defaul)
-gpgpu_dram_partition_queues              8:8:8:8 # i2$:$2d:d2$:$2i
-l2_ideal                               0 # Use a ideal L2 cache that always hit
-gpgpu_cache:dl2     64:128:8,L:B:m:W:L,A:32:4,4:0,32 # unified banked L2 data cache config  {<nsets>:<bsize>:<assoc>,<rep>:<wr>:<alloc>:<wr_alloc>,<mshr>:<N>:<merge>,<mq>}
-gpgpu_cache:dl2_texture_only                    0 # L2 cache used for texture only
-gpgpu_n_mem                            6 # number of memory modules (e.g. memory controllers) in gpu
-gpgpu_n_sub_partition_per_mchannel                    2 # number of memory subpartition in each memory module
-gpgpu_n_mem_per_ctrlr                    2 # number of memory chips per memory controller
-gpgpu_memlatency_stat                   14 # track and display latency statistics 0x2 enables MC, 0x4 enables queue logs
-gpgpu_frfcfs_dram_sched_queue_size                   16 # 0 = unlimited (default); # entries per chip
-gpgpu_dram_return_queue_size                  116 # 0 = unlimited (default); # entries per chip
-gpgpu_dram_buswidth                    4 # default = 4 bytes (8 bytes per cycle at DDR)
-gpgpu_dram_burst_length                    8 # Burst length of each DRAM request (default = 4 data bus cycle)
-dram_data_command_freq_ratio                    4 # Frequency ratio between DRAM data bus and command bus (default = 2 times, i.e. DDR)
-gpgpu_dram_timing_opt nbk=16:CCD=2:RRD=6:RCD=12:RAS=28:RP=12:RC=40: CL=12:WL=4:CDLR=5:WR=12:nbkgrp=4:CCDL=3:RTPL=2 # DRAM timing parameters = {nbk:tCCD:tRRD:tRCD:tRAS:tRP:tRC:CL:WL:tCDLR:tWR:nbkgrp:tCCDL:tRTPL}
-rop_latency                          120 # ROP queue latency (default 85)
-dram_latency                         100 # DRAM latency (default 30)
-gpgpu_mem_addr_mapping dramid@8;00000000.00000000.00000000.00000000.0000RRRR.RRRRRRRR.BBBCCCCB.CCSSSSSS # mapping memory address to dram model {dramid@<start bit>;<memory address map>}
-gpgpu_mem_addr_test                    0 # run sweep test to check address mapping for aliased address
-gpgpu_mem_address_mask                    1 # 0 = old addressing mask, 1 = new addressing mask, 2 = new add. mask + flipped bank sel and chip sel bits
-gpuwattch_xml_file  gpuwattch_gtx480.xml # GPUWattch XML file
-power_simulation_enabled                    1 # Turn on power simulator (1=On, 0=Off)
-power_per_cycle_dump                    0 # Dump detailed power output each cycle
-power_trace_enabled                    0 # produce a file for the power trace (1=On, 0=Off)
-power_trace_zlevel                     6 # Compression level of the power trace output log (0=no comp, 9=highest)
-steady_power_levels_enabled                    0 # produce a file for the steady power levels (1=On, 0=Off)
-steady_state_definition                  8:4 # allowed deviation:number of samples
-gpgpu_max_cycle                        0 # terminates gpu simulation early (0 = no limit)
-gpgpu_max_insn                         0 # terminates gpu simulation early (0 = no limit)
-gpgpu_max_cta                          0 # terminates gpu simulation early (0 = no limit)
-gpgpu_runtime_stat                   500 # display runtime statistics such as dram utilization {<freq>:<flag>}
-liveness_message_freq                    1 # Minimum number of seconds between simulation liveness messages (0 = always print)
-gpgpu_flush_l1_cache                    0 # Flush L1 cache at the end of each kernel call
-gpgpu_flush_l2_cache                    0 # Flush L2 cache at the end of each kernel call
-gpgpu_deadlock_detect                    1 # Stop the simulation at deadlock (1=on (default), 0=off)
-gpgpu_ptx_instruction_classification                    0 # if enabled will classify ptx instruction types per kernel (Max 255 kernels now)
-gpgpu_ptx_sim_mode                     0 # Select between Performance (default) or Functional simulation (1)
-gpgpu_clock_domains 700.0:700.0:700.0:924.0 # Clock Domain Frequencies in MhZ {<Core Clock>:<ICNT Clock>:<L2 Clock>:<DRAM Clock>}
-gpgpu_max_concurrent_kernel                    8 # maximum kernels that can run concurrently on GPU
-gpgpu_cflog_interval                    0 # Interval between each snapshot in control flow logger
-visualizer_enabled                     0 # Turn on visualizer output (1=On, 0=Off)
-visualizer_outputfile                 NULL # Specifies the output log file for visualizer
-visualizer_zlevel                      6 # Compression level of the visualizer output log (0=no comp, 9=highest)
-trace_enabled                          0 # Turn on traces
-trace_components                    none # comma seperated list of traces to enable. Complete list found in trace_streams.tup. Default none
-trace_sampling_core                    0 # The core which is printed using CORE_DPRINTF. Default 0
-trace_sampling_memory_partition                   -1 # The memory partition which is printed using MEMPART_DPRINTF. Default -1 (i.e. all)
-enable_ptx_file_line_stats                    1 # Turn on PTX source line statistic profiling. (1 = On)
-ptx_line_stats_filename gpgpu_inst_stats.txt # Output file for PTX source line statistics.
-save_embedded_ptx                      0 # saves ptx files embedded in binary as <n>.ptx
-keep                                   0 # keep intermediate files created by GPGPU-Sim when interfacing with external programs
-gpgpu_ptx_save_converted_ptxplus                    0 # Saved converted ptxplus to a file
-ptx_opcode_latency_int         4,13,4,5,145 # Opcode latencies for integers <ADD,MAX,MUL,MAD,DIV>Default 1,1,19,25,145
-ptx_opcode_latency_fp          4,13,4,5,39 # Opcode latencies for single precision floating points <ADD,MAX,MUL,MAD,DIV>Default 1,1,1,1,30
-ptx_opcode_latency_dp         8,19,8,8,330 # Opcode latencies for double precision floating points <ADD,MAX,MUL,MAD,DIV>Default 8,8,8,8,335
-ptx_opcode_initiation_int            1,2,2,1,8 # Opcode initiation intervals for integers <ADD,MAX,MUL,MAD,DIV>Default 1,1,4,4,32
-ptx_opcode_initiation_fp            1,2,1,1,4 # Opcode initiation intervals for single precision floating points <ADD,MAX,MUL,MAD,DIV>Default 1,1,1,1,5
-ptx_opcode_initiation_dp         8,16,8,8,130 # Opcode initiation intervals for double precision floating points <ADD,MAX,MUL,MAD,DIV>Default 8,8,8,8,130
DRAM Timing Options:
nbk                                    16 # number of banks
CCD                                     2 # column to column delay
RRD                                     6 # minimal delay between activation of rows in different banks
RCD                                    12 # row to column delay
RAS                                    28 # time needed to activate row
RP                                     12 # time needed to precharge (deactivate) row
RC                                     40 # row cycle time
CDLR                                    5 # switching from write to read (changes tWTR)
WR                                     12 # last data-in to row precharge
CL                                     12 # CAS latency
WL                                      4 # Write latency
nbkgrp                                  4 # number of bank groups
CCDL                                    3 # column to column delay between accesses to different bank groups
RTPL                                    2 # read to precharge delay between accesses to different bank groups
Total number of memory sub partition = 12
addr_dec_mask[CHIP]  = 0000000000000000 	high:64 low:0
addr_dec_mask[BK]    = 000000000000e100 	high:16 low:8
addr_dec_mask[ROW]   = 000000000fff0000 	high:28 low:16
addr_dec_mask[COL]   = 0000000000001eff 	high:13 low:0
addr_dec_mask[BURST] = 000000000000003f 	high:6 low:0
sub_partition_id_mask = 0000000000000100
GPGPU-Sim uArch: clock freqs: 700000000.000000:700000000.000000:700000000.000000:924000000.000000
GPGPU-Sim uArch: clock periods: 0.00000000142857142857:0.00000000142857142857:0.00000000142857142857:0.00000000108225108225
*** Initializing Memory Statistics ***
GPGPU-Sim uArch: interconnect node map (shaderID+MemID to icntID)
GPGPU-Sim uArch: Memory nodes ID start from index: 15
GPGPU-Sim uArch:    0   1   2   3   4
GPGPU-Sim uArch:    5   6   7   8   9
GPGPU-Sim uArch:   10  11  12  13  14
GPGPU-Sim uArch:   15  16  17  18  19
GPGPU-Sim uArch:   20  21  22  23  24
GPGPU-Sim uArch:   25  26
GPGPU-Sim uArch: interconnect node reverse map (icntID to shaderID+MemID)
GPGPU-Sim uArch: Memory nodes start from ID: 15
GPGPU-Sim uArch:    0   1   2   3   4
GPGPU-Sim uArch:    5   6   7   8   9
GPGPU-Sim uArch:   10  11  12  13  14
GPGPU-Sim uArch:   15  16  17  18  19
GPGPU-Sim uArch:   20  21  22  23  24
GPGPU-Sim uArch:   25  26
374dd9399470f26a44fab5f496e2e839  /home/scratch/adwait/applications/benchmarks/CUDA/STO/gpgpu_ptx_sim__STO
GPGPU-Sim uArch: performance model initialization complete.
GPGPU-Sim PTX: __cudaRegisterFatBinary, fat_cubin_handle = 1, filename=main.cu
self exe links to: /home/scratch/adwait/applications/benchmarks/CUDA/STO/gpgpu_ptx_sim__STO
Running md5sum using "md5sum /home/scratch/adwait/applications/benchmarks/CUDA/STO/gpgpu_ptx_sim__STO "
Running cuobjdump using "$CUDA_INSTALL_PATH/bin/cuobjdump -ptx -elf -sass /home/scratch/adwait/applications/benchmarks/CUDA/STO/gpgpu_ptx_sim__STO > _cuobjdump_complete_output_fhoky0"
Parsing file _cuobjdump_complete_output_fhoky0
######### cuobjdump parser ########
## Adding new section ELF
Adding arch: sm_20
Adding identifier: main.cu
## Adding new section PTX
Adding ptx filename: _cuobjdump_1.ptx
Adding arch: sm_20
Adding identifier: main.cu
## Adding new section ELF
Adding arch: sm_20
Adding identifier: storeGPU.cu
## Adding new section PTX
Adding ptx filename: _cuobjdump_2.ptx
Adding arch: sm_20
Adding identifier: storeGPU.cu
Done parsing!!!
GPGPU-Sim PTX: __cudaRegisterFatBinary, fat_cubin_handle = 2, filename=storeGPU.cu
GPGPU-Sim PTX: __cudaRegisterFunction _Z12sha1_overlapPhiiiiS_ : hostFun 0x0x40d965, fat_cubin_handle = 2
GPGPU-Sim PTX: allocating stack frame region for .param "__cudaretf__Z14macroRFunctioniPj" from 0x0 to 0x8
GPGPU-Sim PTX: allocating stack frame region for .param "__cudaparmf1__Z14macroRFunctioniPj" from 0x8 to 0xc
GPGPU-Sim PTX: allocating stack frame region for .param "__cudaparmf2__Z14macroRFunctioniPj" from 0xc to 0x14
GPGPU-Sim PTX: instruction assembly for function '_Z14macroRFunctioniPj'...   done.
GPGPU-Sim PTX: finding reconvergence points for '_Z14macroRFunctioniPj'...
GPGPU-Sim PTX: Finding dominators for '_Z14macroRFunctioniPj'...
GPGPU-Sim PTX: Finding immediate dominators for '_Z14macroRFunctioniPj'...
GPGPU-Sim PTX: Finding postdominators for '_Z14macroRFunctioniPj'...
GPGPU-Sim PTX: Finding immediate postdominators for '_Z14macroRFunctioniPj'...
GPGPU-Sim PTX: pre-decoding instructions for '_Z14macroRFunctioniPj'...
GPGPU-Sim PTX: reconvergence points for _Z14macroRFunctioniPj...
GPGPU-Sim PTX: ... end of reconvergence points for _Z14macroRFunctioniPj
GPGPU-Sim PTX: ... done pre-decoding instructions for '_Z14macroRFunctioniPj'.
GPGPU-Sim PTX: allocating shared region for "__cuda___cuda_local_var_35374_40_non_const_sharedMemory32" from 0x0 to 0x3f80 (shared memory space)
GPGPU-Sim PTX: instruction assembly for function '_Z3md5PhiiiS_'...   done.
GPGPU-Sim PTX: finding reconvergence points for '_Z3md5PhiiiS_'...
GPGPU-Sim PTX: Finding dominators for '_Z3md5PhiiiS_'...
GPGPU-Sim PTX: Finding immediate dominators for '_Z3md5PhiiiS_'...
GPGPU-Sim PTX: Finding postdominators for '_Z3md5PhiiiS_'...
GPGPU-Sim PTX: Finding immediate postdominators for '_Z3md5PhiiiS_'...
GPGPU-Sim PTX: pre-decoding instructions for '_Z3md5PhiiiS_'...
GPGPU-Sim PTX: reconvergence points for _Z3md5PhiiiS_...
GPGPU-Sim PTX:  1 (potential) branch divergence @  PC=0x190 (_2.ptx:127) @%p1 bra $Lt_1_4866;
GPGPU-Sim PTX:    immediate post dominator      @  PC=0x21f0 (_2.ptx:1283) exit;
GPGPU-Sim PTX:  2 (potential) branch divergence @  PC=0x198 (_2.ptx:128) bra.uni $LBB20__Z3md5PhiiiS_;
GPGPU-Sim PTX:    immediate post dominator      @  PC=0x21f0 (_2.ptx:1283) exit;
GPGPU-Sim PTX:  3 (potential) branch divergence @  PC=0x1f0 (_2.ptx:141) @%p3 bra $Lt_1_5634;
GPGPU-Sim PTX:    immediate post dominator      @  PC=0x290 (_2.ptx:167) shr.s32 %r23, %r15, 31;
GPGPU-Sim PTX:  4 (potential) branch divergence @  PC=0x200 (_2.ptx:143) @!%p2 bra $Lt_1_5378;
GPGPU-Sim PTX:    immediate post dominator      @  PC=0x290 (_2.ptx:167) shr.s32 %r23, %r15, 31;
GPGPU-Sim PTX:  5 (potential) branch divergence @  PC=0x278 (_2.ptx:161) @%p4 bra $Lt_1_6402;
GPGPU-Sim PTX:    immediate post dominator      @  PC=0x280 (_2.ptx:162) bra.uni $Lt_1_5378;
GPGPU-Sim PTX:  6 (potential) branch divergence @  PC=0x280 (_2.ptx:162) bra.uni $Lt_1_5378;
GPGPU-Sim PTX:    immediate post dominator      @  PC=0x290 (_2.ptx:167) shr.s32 %r23, %r15, 31;
GPGPU-Sim PTX:  7 (potential) branch divergence @  PC=0x2d0 (_2.ptx:175) @%p5 bra $Lt_1_8706;
GPGPU-Sim PTX:    immediate post dominator      @  PC=0x2198 (_2.ptx:1270) mul.lo.s32 %r234, %r5, 4;
GPGPU-Sim PTX:  8 (potential) branch divergence @  PC=0x4e8 (_2.ptx:257) @%p6 bra $Lt_1_7938;
GPGPU-Sim PTX:    immediate post dominator      @  PC=0x560 (_2.ptx:281) ld.shared.u8 %r69, [%rd20+0];
GPGPU-Sim PTX:  9 (potential) branch divergence @  PC=0x520 (_2.ptx:267) bra.uni $Lt_1_7682;
GPGPU-Sim PTX:    immediate post dominator      @  PC=0x560 (_2.ptx:281) ld.shared.u8 %r69, [%rd20+0];
GPGPU-Sim PTX: 10 (potential) branch divergence @  PC=0x2180 (_2.ptx:1264) @%p7 bra $Lt_1_7426;
GPGPU-Sim PTX:    immediate post dominator      @  PC=0x2188 (_2.ptx:1265) bra.uni $Lt_1_6914;
GPGPU-Sim PTX: 11 (potential) branch divergence @  PC=0x2188 (_2.ptx:1265) bra.uni $Lt_1_6914;
GPGPU-Sim PTX:    immediate post dominator      @  PC=0x2198 (_2.ptx:1270) mul.lo.s32 %r234, %r5, 4;
GPGPU-Sim PTX: ... end of reconvergence points for _Z3md5PhiiiS_
GPGPU-Sim PTX: ... done pre-decoding instructions for '_Z3md5PhiiiS_'.
GPGPU-Sim PTX: allocating shared region for "__cuda___cuda_local_var_35409_40_non_const_sharedMemory16320" from 0x0 to 0x3f80 (shared memory space)
GPGPU-Sim PTX: instruction assembly for function '_Z11md5_overlapPhiiiiS_'...   done.
GPGPU-Sim PTX: finding reconvergence points for '_Z11md5_overlapPhiiiiS_'...
GPGPU-Sim PTX: Finding dominators for '_Z11md5_overlapPhiiiiS_'...
GPGPU-Sim PTX: Finding immediate dominators for '_Z11md5_overlapPhiiiiS_'...
GPGPU-Sim PTX: Finding postdominators for '_Z11md5_overlapPhiiiiS_'...
GPGPU-Sim PTX: Finding immediate postdominators for '_Z11md5_overlapPhiiiiS_'...
GPGPU-Sim PTX: pre-decoding instructions for '_Z11md5_overlapPhiiiiS_'...
GPGPU-Sim PTX: reconvergence points for _Z11md5_overlapPhiiiiS_...
GPGPU-Sim PTX:  1 (potential) branch divergence @  PC=0x2230 (_2.ptx:1308) @%p1 bra $Lt_2_5634;
GPGPU-Sim PTX:    immediate post dominator      @  PC=0x43e8 (_2.ptx:2510) exit;
GPGPU-Sim PTX:  2 (potential) branch divergence @  PC=0x2238 (_2.ptx:1309) bra.uni $LBB23__Z11md5_overlapPhiiiiS_;
GPGPU-Sim PTX:    immediate post dominator      @  PC=0x43e8 (_2.ptx:2510) exit;
GPGPU-Sim PTX:  3 (potential) branch divergence @  PC=0x22b0 (_2.ptx:1326) @%p3 bra $Lt_2_9730;
GPGPU-Sim PTX:    immediate post dominator      @  PC=0x4390 (_2.ptx:2497) mul.lo.s32 %r260, %r5, 4;
GPGPU-Sim PTX:  4 (potential) branch divergence @  PC=0x2440 (_2.ptx:1378) @%p4 bra $Lt_2_7170;
GPGPU-Sim PTX:    immediate post dominator      @  PC=0x2768 (_2.ptx:1510) ld.shared.u8 %r95, [%rd15+0];
GPGPU-Sim PTX:  5 (potential) branch divergence @  PC=0x2488 (_2.ptx:1387) @%p5 bra $Lt_2_9986;
GPGPU-Sim PTX:    immediate post dominator      @  PC=0x2520 (_2.ptx:1411) mov.s32 %r62, 13;
GPGPU-Sim PTX:  6 (potential) branch divergence @  PC=0x2500 (_2.ptx:1405) @%p6 bra $Lt_2_7938;
GPGPU-Sim PTX:    immediate post dominator      @  PC=0x2508 (_2.ptx:1406) mov.s32 %r61, %r52;
GPGPU-Sim PTX:  7 (potential) branch divergence @  PC=0x2510 (_2.ptx:1407) bra.uni $Lt_2_7426;
GPGPU-Sim PTX:    immediate post dominator      @  PC=0x2520 (_2.ptx:1411) mov.s32 %r62, 13;
GPGPU-Sim PTX:  8 (potential) branch divergence @  PC=0x2540 (_2.ptx:1415) @%p7 bra $Lt_2_8450;
GPGPU-Sim PTX:    immediate post dominator      @  PC=0x25e0 (_2.ptx:1440) mov.u32 %r72, 128;
GPGPU-Sim PTX:  9 (potential) branch divergence @  PC=0x25d8 (_2.ptx:1437) @%p8 bra $Lt_2_8962;
GPGPU-Sim PTX:    immediate post dominator      @  PC=0x25e0 (_2.ptx:1440) mov.u32 %r72, 128;
GPGPU-Sim PTX: 10 (potential) branch divergence @  PC=0x2640 (_2.ptx:1454) bra.uni $Lt_2_6914;
GPGPU-Sim PTX:    immediate post dominator      @  PC=0x2768 (_2.ptx:1510) ld.shared.u8 %r95, [%rd15+0];
GPGPU-Sim PTX: 11 (potential) branch divergence @  PC=0x4378 (_2.ptx:2491) @%p9 bra $Lt_2_6658;
GPGPU-Sim PTX:    immediate post dominator      @  PC=0x4380 (_2.ptx:2492) bra.uni $Lt_2_6146;
GPGPU-Sim PTX: 12 (potential) branch divergence @  PC=0x4380 (_2.ptx:2492) bra.uni $Lt_2_6146;
GPGPU-Sim PTX:    immediate post dominator      @  PC=0x4390 (_2.ptx:2497) mul.lo.s32 %r260, %r5, 4;
GPGPU-Sim PTX: ... end of reconvergence points for _Z11md5_overlapPhiiiiS_
GPGPU-Sim PTX: ... done pre-decoding instructions for '_Z11md5_overlapPhiiiiS_'.
GPGPU-Sim PTX: allocating shared region for "__cuda___cuda_local_var_36258_40_non_const_sharedMemory32608" from 0x0 to 0x3f80 (shared memory space)
GPGPU-Sim PTX: instruction assembly for function '_Z4sha1PhiiiS_'...   done.
GPGPU-Sim PTX: finding reconvergence points for '_Z4sha1PhiiiS_'...
GPGPU-Sim PTX: Finding dominators for '_Z4sha1PhiiiS_'...
GPGPU-Sim PTX: Finding immediate dominators for '_Z4sha1PhiiiS_'...
GPGPU-Sim PTX: Finding postdominators for '_Z4sha1PhiiiS_'...
GPGPU-Sim PTX: Finding immediate postdominators for '_Z4sha1PhiiiS_'...
GPGPU-Sim PTX: pre-decoding instructions for '_Z4sha1PhiiiS_'...
GPGPU-Sim PTX: reconvergence points for _Z4sha1PhiiiS_...
GPGPU-Sim PTX:  1 (potential) branch divergence @  PC=0x4428 (_2.ptx:2534) @%p1 bra $Lt_3_4866;
GPGPU-Sim PTX:    immediate post dominator      @  PC=0x9018 (_2.ptx:5165) exit;
GPGPU-Sim PTX:  2 (potential) branch divergence @  PC=0x4430 (_2.ptx:2535) bra.uni $LBB20__Z4sha1PhiiiS_;
GPGPU-Sim PTX:    immediate post dominator      @  PC=0x9018 (_2.ptx:5165) exit;
GPGPU-Sim PTX:  3 (potential) branch divergence @  PC=0x4488 (_2.ptx:2548) @%p3 bra $Lt_3_5634;
GPGPU-Sim PTX:    immediate post dominator      @  PC=0x4528 (_2.ptx:2574) shr.u32 %r23, %r15, 6;
GPGPU-Sim PTX:  4 (potential) branch divergence @  PC=0x4498 (_2.ptx:2550) @!%p2 bra $Lt_3_5378;
GPGPU-Sim PTX:    immediate post dominator      @  PC=0x4528 (_2.ptx:2574) shr.u32 %r23, %r15, 6;
GPGPU-Sim PTX:  5 (potential) branch divergence @  PC=0x4510 (_2.ptx:2568) @%p4 bra $Lt_3_6402;
GPGPU-Sim PTX:    immediate post dominator      @  PC=0x4518 (_2.ptx:2569) bra.uni $Lt_3_5378;
GPGPU-Sim PTX:  6 (potential) branch divergence @  PC=0x4518 (_2.ptx:2569) bra.uni $Lt_3_5378;
GPGPU-Sim PTX:    immediate post dominator      @  PC=0x4528 (_2.ptx:2574) shr.u32 %r23, %r15, 6;
GPGPU-Sim PTX:  7 (potential) branch divergence @  PC=0x4548 (_2.ptx:2578) @%p5 bra $Lt_3_8706;
GPGPU-Sim PTX:    immediate post dominator      @  PC=0x8fc0 (_2.ptx:5152) mul.lo.s32 %r748, %r5, 4;
GPGPU-Sim PTX:  8 (potential) branch divergence @  PC=0x4730 (_2.ptx:2654) @%p6 bra $Lt_3_7938;
GPGPU-Sim PTX:    immediate post dominator      @  PC=0x4820 (_2.ptx:2693) ld.shared.u8 %r69, [%rd21+3];
GPGPU-Sim PTX:  9 (potential) branch divergence @  PC=0x47e0 (_2.ptx:2679) bra.uni $Lt_3_7682;
GPGPU-Sim PTX:    immediate post dominator      @  PC=0x4820 (_2.ptx:2693) ld.shared.u8 %r69, [%rd21+3];
GPGPU-Sim PTX: 10 (potential) branch divergence @  PC=0x8fa8 (_2.ptx:5146) @%p7 bra $Lt_3_7426;
GPGPU-Sim PTX:    immediate post dominator      @  PC=0x8fb0 (_2.ptx:5147) bra.uni $Lt_3_6914;
GPGPU-Sim PTX: 11 (potential) branch divergence @  PC=0x8fb0 (_2.ptx:5147) bra.uni $Lt_3_6914;
GPGPU-Sim PTX:    immediate post dominator      @  PC=0x8fc0 (_2.ptx:5152) mul.lo.s32 %r748, %r5, 4;
GPGPU-Sim PTX: ... end of reconvergence points for _Z4sha1PhiiiS_
GPGPU-Sim PTX: ... done pre-decoding instructions for '_Z4sha1PhiiiS_'.
GPGPU-Sim PTX: allocating shared region for "__cuda___cuda_local_var_36290_40_non_const_sharedMemory48896" from 0x0 to 0x3f80 (shared memory space)
GPGPU-Sim PTX: instruction assembly for function '_Z12sha1_overlapPhiiiiS_'...   done.
GPGPU-Sim PTX: finding reconvergence points for '_Z12sha1_overlapPhiiiiS_'...
GPGPU-Sim PTX: Finding dominators for '_Z12sha1_overlapPhiiiiS_'...
GPGPU-Sim PTX: Finding immediate dominators for '_Z12sha1_overlapPhiiiiS_'...
GPGPU-Sim PTX: Finding postdominators for '_Z12sha1_overlapPhiiiiS_'...
GPGPU-Sim PTX: Finding immediate postdominators for '_Z12sha1_overlapPhiiiiS_'...
GPGPU-Sim PTX: pre-decoding instructions for '_Z12sha1_overlapPhiiiiS_'...
GPGPU-Sim PTX: reconvergence points for _Z12sha1_overlapPhiiiiS_...
GPGPU-Sim PTX:  1 (potential) branch divergence @  PC=0x9058 (_2.ptx:5190) @%p1 bra $Lt_4_5634;
GPGPU-Sim PTX:    immediate post dominator      @  PC=0xde28 (_2.ptx:7884) exit;
GPGPU-Sim PTX:  2 (potential) branch divergence @  PC=0x9060 (_2.ptx:5191) bra.uni $LBB23__Z12sha1_overlapPhiiiiS_;
GPGPU-Sim PTX:    immediate post dominator      @  PC=0xde28 (_2.ptx:7884) exit;
GPGPU-Sim PTX:  3 (potential) branch divergence @  PC=0x90b8 (_2.ptx:5204) @%p3 bra $Lt_4_9730;
GPGPU-Sim PTX:    immediate post dominator      @  PC=0xddd0 (_2.ptx:7871) mul.lo.s32 %r783, %r5, 4;
GPGPU-Sim PTX:  4 (potential) branch divergence @  PC=0x9288 (_2.ptx:5264) @%p4 bra $Lt_4_7170;
GPGPU-Sim PTX:    immediate post dominator      @  PC=0x9628 (_2.ptx:5411) ld.shared.u8 %r101, [%rd15+3];
GPGPU-Sim PTX:  5 (potential) branch divergence @  PC=0x92d0 (_2.ptx:5273) @%p5 bra $Lt_4_9986;
GPGPU-Sim PTX:    immediate post dominator      @  PC=0x9368 (_2.ptx:5297) mov.s32 %r59, 13;
GPGPU-Sim PTX:  6 (potential) branch divergence @  PC=0x9348 (_2.ptx:5291) @%p6 bra $Lt_4_7938;
GPGPU-Sim PTX:    immediate post dominator      @  PC=0x9350 (_2.ptx:5292) mov.s32 %r58, %r49;
GPGPU-Sim PTX:  7 (potential) branch divergence @  PC=0x9358 (_2.ptx:5293) bra.uni $Lt_4_7426;
GPGPU-Sim PTX:    immediate post dominator      @  PC=0x9368 (_2.ptx:5297) mov.s32 %r59, 13;
GPGPU-Sim PTX:  8 (potential) branch divergence @  PC=0x9388 (_2.ptx:5301) @%p7 bra $Lt_4_8450;
GPGPU-Sim PTX:    immediate post dominator      @  PC=0x9428 (_2.ptx:5326) mov.u32 %r69, 128;
GPGPU-Sim PTX:  9 (potential) branch divergence @  PC=0x9420 (_2.ptx:5323) @%p8 bra $Lt_4_8962;
GPGPU-Sim PTX:    immediate post dominator      @  PC=0x9428 (_2.ptx:5326) mov.u32 %r69, 128;
GPGPU-Sim PTX: 10 (potential) branch divergence @  PC=0x9500 (_2.ptx:5355) bra.uni $Lt_4_6914;
GPGPU-Sim PTX:    immediate post dominator      @  PC=0x9628 (_2.ptx:5411) ld.shared.u8 %r101, [%rd15+3];
GPGPU-Sim PTX: 11 (potential) branch divergence @  PC=0xddb8 (_2.ptx:7865) @%p9 bra $Lt_4_6658;
GPGPU-Sim PTX:    immediate post dominator      @  PC=0xddc0 (_2.ptx:7866) bra.uni $Lt_4_6146;
GPGPU-Sim PTX: 12 (potential) branch divergence @  PC=0xddc0 (_2.ptx:7866) bra.uni $Lt_4_6146;
GPGPU-Sim PTX:    immediate post dominator      @  PC=0xddd0 (_2.ptx:7871) mul.lo.s32 %r783, %r5, 4;
GPGPU-Sim PTX: ... end of reconvergence points for _Z12sha1_overlapPhiiiiS_
GPGPU-Sim PTX: ... done pre-decoding instructions for '_Z12sha1_overlapPhiiiiS_'.
GPGPU-Sim PTX: allocating global region for "md5_padding" from 0x100 to 0x140 (global memory space)
GPGPU-Sim PTX: allocating global region for "sha1_padding" from 0x140 to 0x180 (global memory space)
GPGPU-Sim PTX: finished parsing EMBEDDED .ptx file _2.ptx
Adding _cuobjdump_2.ptx with cubin handle 2
GPGPU-Sim PTX: extracting embedded .ptx to temporary file "_ptx_hXIbyt"
Running: cat _ptx_hXIbyt | sed 's/.version 1.5/.version 1.4/' | sed 's/, texmode_independent//' | sed 's/\(\.extern \.const\[1\] .b8 \w\+\)\[\]/\1\[1\]/' | sed 's/const\[.\]/const\[0\]/g' > _ptx2_zE9kHW
GPGPU-Sim PTX: generating ptxinfo using "$CUDA_INSTALL_PATH/bin/ptxas --gpu-name=sm_20 -v _ptx2_zE9kHW --output-file  /dev/null 2> _ptx_hXIbytinfo"
GPGPU-Sim PTX: Kernel '_Z12sha1_overlapPhiiiiS_' : regs=47, lmem=0, smem=16256, cmem=80
GPGPU-Sim PTX: Kernel '_Z4sha1PhiiiS_' : regs=45, lmem=0, smem=16256, cmem=80
GPGPU-Sim PTX: Kernel '_Z11md5_overlapPhiiiiS_' : regs=42, lmem=0, smem=16256, cmem=80
GPGPU-Sim PTX: Kernel '_Z3md5PhiiiS_' : regs=42, lmem=0, smem=16256, cmem=80
GPGPU-Sim PTX: removing ptxinfo using "rm -f _ptx_hXIbyt _ptx2_zE9kHW _ptx_hXIbytinfo"
GPGPU-Sim PTX: loading globals with explicit initializers... 
GPGPU-Sim PTX:     initializing 'md5_padding' ...  wrote 64 bytes
GPGPU-Sim PTX:     initializing 'sha1_padding' ...  wrote 64 bytes
GPGPU-Sim PTX: finished loading globals (128 bytes total).
GPGPU-Sim PTX: loading constants with explicit initializers...  done.
GPGPU-Sim PTX: __cudaRegisterFunction _Z4sha1PhiiiS_ : hostFun 0x0x40d81a, fat_cubin_handle = 2
GPGPU-Sim PTX: __cudaRegisterFunction _Z11md5_overlapPhiiiiS_ : hostFun 0x0x40d6ef, fat_cubin_handle = 2
GPGPU-Sim PTX: __cudaRegisterFunction _Z3md5PhiiiS_ : hostFun 0x0x40d5a4, fat_cubin_handle = 2
GPGPU-Sim PTX: __cudaRegisterVar: hostVar = 0x66b420; deviceAddress = md5_padding; deviceName = md5_padding
GPGPU-Sim PTX: __cudaRegisterVar: Registering const memory space of 64 bytes
GPGPU-Sim PTX registering global md5_padding hostVar to name mapping
GPGPU-Sim PTX: __cudaRegisterVar: hostVar = 0x66b460; deviceAddress = sha1_padding; deviceName = sha1_padding
GPGPU-Sim PTX: __cudaRegisterVar: Registering const memory space of 64 bytes
GPGPU-Sim PTX registering global sha1_padding hostVar to name mapping
Shared Memory Enabled
Pinned Memory Enabled
Reduced Hash Size Enabled
Running SHA1 Overlap Test..
SHA1 Overlap Test


== GPU Execution Context ==
Threads       : 128
Blocks        : 384
Total Threads : 49152
Total size    : 196656
Chunk Size    : 52
Padding       : 0


GPGPU-Sim PTX: cudaLaunch for 0x0x40d965 (mode=performance simulation) on stream 0
GPGPU-Sim PTX: pushing kernel '_Z12sha1_overlapPhiiiiS_' to stream 0, gridDim= (384,1,1) blockDim = (128,1,1) 
kernel '_Z12sha1_overlapPhiiiiS_' transfer to GPU hardware scheduler
GPGPU-Sim uArch: Shader 1 bind to kernel 1 '_Z12sha1_overlapPhiiiiS_'
GPGPU-Sim uArch: CTA/core = 3, limited by: shmem
GPGPU-Sim uArch: core:  1, cta: 0 initialized @(1,0)
GPGPU-Sim uArch: Shader 2 bind to kernel 1 '_Z12sha1_overlapPhiiiiS_'
GPGPU-Sim uArch: core:  2, cta: 0 initialized @(1,0)
GPGPU-Sim uArch: Shader 3 bind to kernel 1 '_Z12sha1_overlapPhiiiiS_'
GPGPU-Sim uArch: core:  3, cta: 0 initialized @(1,0)
GPGPU-Sim uArch: Shader 4 bind to kernel 1 '_Z12sha1_overlapPhiiiiS_'
GPGPU-Sim uArch: core:  4, cta: 0 initialized @(1,0)
GPGPU-Sim uArch: Shader 5 bind to kernel 1 '_Z12sha1_overlapPhiiiiS_'
GPGPU-Sim uArch: core:  5, cta: 0 initialized @(1,0)
GPGPU-Sim uArch: Shader 6 bind to kernel 1 '_Z12sha1_overlapPhiiiiS_'
GPGPU-Sim uArch: core:  6, cta: 0 initialized @(1,0)
GPGPU-Sim uArch: Shader 7 bind to kernel 1 '_Z12sha1_overlapPhiiiiS_'
GPGPU-Sim uArch: core:  7, cta: 0 initialized @(1,0)
GPGPU-Sim uArch: Shader 8 bind to kernel 1 '_Z12sha1_overlapPhiiiiS_'
GPGPU-Sim uArch: core:  8, cta: 0 initialized @(1,0)
GPGPU-Sim uArch: Shader 9 bind to kernel 1 '_Z12sha1_overlapPhiiiiS_'
GPGPU-Sim uArch: core:  9, cta: 0 initialized @(1,0)
GPGPU-Sim uArch: Shader 10 bind to kernel 1 '_Z12sha1_overlapPhiiiiS_'
GPGPU-Sim uArch: core: 10, cta: 0 initialized @(1,0)
GPGPU-Sim uArch: Shader 11 bind to kernel 1 '_Z12sha1_overlapPhiiiiS_'
GPGPU-Sim uArch: core: 11, cta: 0 initialized @(1,0)
GPGPU-Sim uArch: Shader 12 bind to kernel 1 '_Z12sha1_overlapPhiiiiS_'
GPGPU-Sim uArch: core: 12, cta: 0 initialized @(1,0)
GPGPU-Sim uArch: Shader 13 bind to kernel 1 '_Z12sha1_overlapPhiiiiS_'
GPGPU-Sim uArch: core: 13, cta: 0 initialized @(1,0)
GPGPU-Sim uArch: Shader 14 bind to kernel 1 '_Z12sha1_overlapPhiiiiS_'
GPGPU-Sim uArch: core: 14, cta: 0 initialized @(1,0)
GPGPU-Sim uArch: Shader 0 bind to kernel 1 '_Z12sha1_overlapPhiiiiS_'
GPGPU-Sim uArch: core:  0, cta: 0 initialized @(1,0)
GPGPU-Sim uArch: core:  1, cta: 1 initialized @(2,0)
GPGPU-Sim uArch: core:  2, cta: 1 initialized @(2,0)
GPGPU-Sim uArch: core:  3, cta: 1 initialized @(2,0)
GPGPU-Sim uArch: core:  4, cta: 1 initialized @(2,0)
GPGPU-Sim uArch: core:  5, cta: 1 initialized @(2,0)
GPGPU-Sim uArch: core:  6, cta: 1 initialized @(2,0)
GPGPU-Sim uArch: core:  7, cta: 1 initialized @(2,0)
GPGPU-Sim uArch: core:  8, cta: 1 initialized @(2,0)
GPGPU-Sim uArch: core:  9, cta: 1 initialized @(2,0)
GPGPU-Sim uArch: core: 10, cta: 1 initialized @(2,0)
GPGPU-Sim uArch: core: 11, cta: 1 initialized @(2,0)
GPGPU-Sim uArch: core: 12, cta: 1 initialized @(2,0)
GPGPU-Sim uArch: core: 13, cta: 1 initialized @(2,0)
GPGPU-Sim uArch: core: 14, cta: 1 initialized @(2,0)
GPGPU-Sim uArch: core:  0, cta: 1 initialized @(2,0)
GPGPU-Sim uArch: core:  1, cta: 2 initialized @(3,0)
GPGPU-Sim uArch: core:  2, cta: 2 initialized @(3,0)
GPGPU-Sim uArch: core:  3, cta: 2 initialized @(3,0)
GPGPU-Sim uArch: core:  4, cta: 2 initialized @(3,0)
GPGPU-Sim uArch: core:  5, cta: 2 initialized @(3,0)
GPGPU-Sim uArch: core:  6, cta: 2 initialized @(3,0)
GPGPU-Sim uArch: core:  7, cta: 2 initialized @(3,0)
GPGPU-Sim uArch: core:  8, cta: 2 initialized @(3,0)
GPGPU-Sim uArch: core:  9, cta: 2 initialized @(3,0)
GPGPU-Sim uArch: core: 10, cta: 2 initialized @(3,0)
GPGPU-Sim uArch: core: 11, cta: 2 initialized @(3,0)
GPGPU-Sim uArch: core: 12, cta: 2 initialized @(3,0)
GPGPU-Sim uArch: core: 13, cta: 2 initialized @(3,0)
GPGPU-Sim uArch: core: 14, cta: 2 initialized @(3,0)
GPGPU-Sim uArch: core:  0, cta: 2 initialized @(3,0)
GPGPU-Sim uArch: cycles simulated: 500  inst.: 28800 (ipc=57.6) sim_rate=28800 (inst/sec) elapsed = 0:0:00:01 / Tue Apr 16 16:49:24 2019
GPGPU-Sim PTX: 100000 instructions simulated : ctaid=(41,0,0) tid=(31,0,0)
GPGPU-Sim PTX: 200000 instructions simulated : ctaid=(13,0,0) tid=(63,0,0)
GPGPU-Sim PTX: 300000 instructions simulated : ctaid=(36,0,0) tid=(95,0,0)
GPGPU-Sim uArch: cycles simulated: 2000  inst.: 352576 (ipc=176.3) sim_rate=176288 (inst/sec) elapsed = 0:0:00:02 / Tue Apr 16 16:49:25 2019
GPGPU-Sim PTX: 400000 instructions simulated : ctaid=(6,0,0) tid=(95,0,0)
GPGPU-Sim PTX: 500000 instructions simulated : ctaid=(2,0,0) tid=(63,0,0)
GPGPU-Sim PTX: 600000 instructions simulated : ctaid=(42,0,0) tid=(31,0,0)
GPGPU-Sim PTX: 700000 instructions simulated : ctaid=(3,0,0) tid=(63,0,0)
GPGPU-Sim uArch: cycles simulated: 3500  inst.: 709344 (ipc=202.7) sim_rate=236448 (inst/sec) elapsed = 0:0:00:03 / Tue Apr 16 16:49:26 2019
GPGPU-Sim PTX: 800000 instructions simulated : ctaid=(2,0,0) tid=(63,0,0)
GPGPU-Sim PTX: 900000 instructions simulated : ctaid=(4,0,0) tid=(31,0,0)
GPGPU-Sim PTX: 1000000 instructions simulated : ctaid=(38,0,0) tid=(63,0,0)
GPGPU-Sim PTX: 1100000 instructions simulated : ctaid=(17,0,0) tid=(63,0,0)
GPGPU-Sim uArch: cycles simulated: 4000  inst.: 1083648 (ipc=270.9) sim_rate=270912 (inst/sec) elapsed = 0:0:00:04 / Tue Apr 16 16:49:27 2019
GPGPU-Sim PTX: 1200000 instructions simulated : ctaid=(4,0,0) tid=(63,0,0)
GPGPU-Sim PTX: 1300000 instructions simulated : ctaid=(40,0,0) tid=(95,0,0)
GPGPU-Sim PTX: 1400000 instructions simulated : ctaid=(36,0,0) tid=(95,0,0)
GPGPU-Sim uArch: cycles simulated: 4500  inst.: 1389824 (ipc=308.8) sim_rate=277964 (inst/sec) elapsed = 0:0:00:05 / Tue Apr 16 16:49:28 2019
GPGPU-Sim PTX: 1500000 instructions simulated : ctaid=(17,0,0) tid=(95,0,0)
GPGPU-Sim PTX: 1600000 instructions simulated : ctaid=(28,0,0) tid=(127,0,0)
GPGPU-Sim uArch: cycles simulated: 5500  inst.: 1602016 (ipc=291.3) sim_rate=267002 (inst/sec) elapsed = 0:0:00:06 / Tue Apr 16 16:49:29 2019
GPGPU-Sim PTX: 1700000 instructions simulated : ctaid=(9,0,0) tid=(95,0,0)
GPGPU-Sim PTX: 1800000 instructions simulated : ctaid=(5,0,0) tid=(31,0,0)
GPGPU-Sim PTX: 1900000 instructions simulated : ctaid=(29,0,0) tid=(127,0,0)
GPGPU-Sim PTX: 2000000 instructions simulated : ctaid=(38,0,0) tid=(127,0,0)
GPGPU-Sim uArch: cycles simulated: 7000  inst.: 1996512 (ipc=285.2) sim_rate=285216 (inst/sec) elapsed = 0:0:00:07 / Tue Apr 16 16:49:30 2019
GPGPU-Sim PTX: 2100000 instructions simulated : ctaid=(43,0,0) tid=(95,0,0)
GPGPU-Sim PTX: 2200000 instructions simulated : ctaid=(39,0,0) tid=(63,0,0)
GPGPU-Sim PTX: 2300000 instructions simulated : ctaid=(0,0,0) tid=(127,0,0)
GPGPU-Sim uArch: cycles simulated: 8500  inst.: 2367360 (ipc=278.5) sim_rate=295920 (inst/sec) elapsed = 0:0:00:08 / Tue Apr 16 16:49:31 2019
GPGPU-Sim PTX: 2400000 instructions simulated : ctaid=(20,0,0) tid=(31,0,0)
GPGPU-Sim PTX: 2500000 instructions simulated : ctaid=(15,0,0) tid=(63,0,0)
GPGPU-Sim PTX: 2600000 instructions simulated : ctaid=(4,0,0) tid=(95,0,0)
GPGPU-Sim PTX: 2700000 instructions simulated : ctaid=(12,0,0) tid=(31,0,0)
GPGPU-Sim uArch: cycles simulated: 10000  inst.: 2747104 (ipc=274.7) sim_rate=305233 (inst/sec) elapsed = 0:0:00:09 / Tue Apr 16 16:49:32 2019
GPGPU-Sim PTX: 2800000 instructions simulated : ctaid=(22,0,0) tid=(95,0,0)
GPGPU-Sim PTX: 2900000 instructions simulated : ctaid=(15,0,0) tid=(95,0,0)
GPGPU-Sim PTX: 3000000 instructions simulated : ctaid=(6,0,0) tid=(95,0,0)
GPGPU-Sim PTX: 3100000 instructions simulated : ctaid=(30,0,0) tid=(127,0,0)
GPGPU-Sim PTX: 3200000 instructions simulated : ctaid=(26,0,0) tid=(63,0,0)
GPGPU-Sim uArch: cycles simulated: 11500  inst.: 3171776 (ipc=275.8) sim_rate=317177 (inst/sec) elapsed = 0:0:00:10 / Tue Apr 16 16:49:33 2019
GPGPU-Sim PTX: 3300000 instructions simulated : ctaid=(33,0,0) tid=(127,0,0)
GPGPU-Sim PTX: 3400000 instructions simulated : ctaid=(27,0,0) tid=(95,0,0)
GPGPU-Sim uArch: cycles simulated: 12500  inst.: 3398400 (ipc=271.9) sim_rate=308945 (inst/sec) elapsed = 0:0:00:11 / Tue Apr 16 16:49:34 2019
GPGPU-Sim PTX: 3500000 instructions simulated : ctaid=(31,0,0) tid=(63,0,0)
GPGPU-Sim PTX: 3600000 instructions simulated : ctaid=(22,0,0) tid=(31,0,0)
GPGPU-Sim PTX: 3700000 instructions simulated : ctaid=(30,0,0) tid=(31,0,0)
GPGPU-Sim PTX: 3800000 instructions simulated : ctaid=(0,0,0) tid=(31,0,0)
GPGPU-Sim uArch: cycles simulated: 14000  inst.: 3821856 (ipc=273.0) sim_rate=318488 (inst/sec) elapsed = 0:0:00:12 / Tue Apr 16 16:49:35 2019
GPGPU-Sim PTX: 3900000 instructions simulated : ctaid=(32,0,0) tid=(95,0,0)
GPGPU-Sim PTX: 4000000 instructions simulated : ctaid=(20,0,0) tid=(31,0,0)
GPGPU-Sim PTX: 4100000 instructions simulated : ctaid=(30,0,0) tid=(31,0,0)
GPGPU-Sim PTX: 4200000 instructions simulated : ctaid=(34,0,0) tid=(31,0,0)
GPGPU-Sim uArch: cycles simulated: 15500  inst.: 4210400 (ipc=271.6) sim_rate=323876 (inst/sec) elapsed = 0:0:00:13 / Tue Apr 16 16:49:36 2019
GPGPU-Sim PTX: 4300000 instructions simulated : ctaid=(12,0,0) tid=(63,0,0)
GPGPU-Sim PTX: 4400000 instructions simulated : ctaid=(36,0,0) tid=(31,0,0)
GPGPU-Sim PTX: 4500000 instructions simulated : ctaid=(41,0,0) tid=(63,0,0)
GPGPU-Sim PTX: 4600000 instructions simulated : ctaid=(28,0,0) tid=(95,0,0)
GPGPU-Sim uArch: cycles simulated: 17000  inst.: 4579200 (ipc=269.4) sim_rate=327085 (inst/sec) elapsed = 0:0:00:14 / Tue Apr 16 16:49:37 2019
GPGPU-Sim PTX: 4700000 instructions simulated : ctaid=(22,0,0) tid=(31,0,0)
GPGPU-Sim PTX: 4800000 instructions simulated : ctaid=(4,0,0) tid=(127,0,0)
GPGPU-Sim PTX: 4900000 instructions simulated : ctaid=(32,0,0) tid=(127,0,0)
GPGPU-Sim PTX: 5000000 instructions simulated : ctaid=(6,0,0) tid=(127,0,0)
GPGPU-Sim uArch: cycles simulated: 18500  inst.: 4981024 (ipc=269.2) sim_rate=332068 (inst/sec) elapsed = 0:0:00:15 / Tue Apr 16 16:49:38 2019
GPGPU-Sim PTX: 5100000 instructions simulated : ctaid=(5,0,0) tid=(63,0,0)
GPGPU-Sim PTX: 5200000 instructions simulated : ctaid=(3,0,0) tid=(31,0,0)
GPGPU-Sim PTX: 5300000 instructions simulated : ctaid=(35,0,0) tid=(63,0,0)
GPGPU-Sim PTX: 5400000 instructions simulated : ctaid=(12,0,0) tid=(63,0,0)
GPGPU-Sim uArch: cycles simulated: 20000  inst.: 5402496 (ipc=270.1) sim_rate=337656 (inst/sec) elapsed = 0:0:00:16 / Tue Apr 16 16:49:39 2019
GPGPU-Sim PTX: 5500000 instructions simulated : ctaid=(36,0,0) tid=(95,0,0)
GPGPU-Sim PTX: 5600000 instructions simulated : ctaid=(24,0,0) tid=(31,0,0)
GPGPU-Sim PTX: 5700000 instructions simulated : ctaid=(20,0,0) tid=(127,0,0)
GPGPU-Sim PTX: 5800000 instructions simulated : ctaid=(43,0,0) tid=(63,0,0)
GPGPU-Sim uArch: cycles simulated: 21500  inst.: 5777280 (ipc=268.7) sim_rate=339840 (inst/sec) elapsed = 0:0:00:17 / Tue Apr 16 16:49:40 2019
GPGPU-Sim PTX: 5900000 instructions simulated : ctaid=(2,0,0) tid=(127,0,0)
GPGPU-Sim PTX: 6000000 instructions simulated : ctaid=(30,0,0) tid=(63,0,0)
GPGPU-Sim uArch: cycles simulated: 22500  inst.: 6053280 (ipc=269.0) sim_rate=336293 (inst/sec) elapsed = 0:0:00:18 / Tue Apr 16 16:49:41 2019
GPGPU-Sim PTX: 6100000 instructions simulated : ctaid=(0,0,0) tid=(63,0,0)
GPGPU-Sim PTX: 6200000 instructions simulated : ctaid=(24,0,0) tid=(63,0,0)
GPGPU-Sim PTX: 6300000 instructions simulated : ctaid=(8,0,0) tid=(31,0,0)
GPGPU-Sim PTX: 6400000 instructions simulated : ctaid=(41,0,0) tid=(95,0,0)
GPGPU-Sim uArch: cycles simulated: 24000  inst.: 6422400 (ipc=267.6) sim_rate=338021 (inst/sec) elapsed = 0:0:00:19 / Tue Apr 16 16:49:42 2019
GPGPU-Sim PTX: 6500000 instructions simulated : ctaid=(34,0,0) tid=(31,0,0)
GPGPU-Sim PTX: 6600000 instructions simulated : ctaid=(14,0,0) tid=(31,0,0)
GPGPU-Sim PTX: 6700000 instructions simulated : ctaid=(39,0,0) tid=(31,0,0)
GPGPU-Sim PTX: 6800000 instructions simulated : ctaid=(44,0,0) tid=(127,0,0)
GPGPU-Sim uArch: cycles simulated: 25500  inst.: 6796960 (ipc=266.5) sim_rate=339848 (inst/sec) elapsed = 0:0:00:20 / Tue Apr 16 16:49:43 2019
GPGPU-Sim PTX: 6900000 instructions simulated : ctaid=(35,0,0) tid=(95,0,0)
GPGPU-Sim PTX: 7000000 instructions simulated : ctaid=(2,0,0) tid=(31,0,0)
GPGPU-Sim PTX: 7100000 instructions simulated : ctaid=(14,0,0) tid=(127,0,0)
GPGPU-Sim PTX: 7200000 instructions simulated : ctaid=(21,0,0) tid=(31,0,0)
GPGPU-Sim uArch: cycles simulated: 27000  inst.: 7241280 (ipc=268.2) sim_rate=344822 (inst/sec) elapsed = 0:0:00:21 / Tue Apr 16 16:49:44 2019
GPGPU-Sim PTX: 7300000 instructions simulated : ctaid=(11,0,0) tid=(95,0,0)
GPGPU-Sim PTX: 7400000 instructions simulated : ctaid=(17,0,0) tid=(95,0,0)
GPGPU-Sim PTX: 7500000 instructions simulated : ctaid=(34,0,0) tid=(63,0,0)
GPGPU-Sim PTX: 7600000 instructions simulated : ctaid=(13,0,0) tid=(95,0,0)
GPGPU-Sim uArch: cycles simulated: 28500  inst.: 7620480 (ipc=267.4) sim_rate=346385 (inst/sec) elapsed = 0:0:00:22 / Tue Apr 16 16:49:45 2019
GPGPU-Sim PTX: 7700000 instructions simulated : ctaid=(24,0,0) tid=(95,0,0)
GPGPU-Sim PTX: 7800000 instructions simulated : ctaid=(18,0,0) tid=(63,0,0)
GPGPU-Sim PTX: 7900000 instructions simulated : ctaid=(21,0,0) tid=(63,0,0)
GPGPU-Sim PTX: 8000000 instructions simulated : ctaid=(26,0,0) tid=(31,0,0)
GPGPU-Sim uArch: cycles simulated: 30000  inst.: 7989120 (ipc=266.3) sim_rate=347353 (inst/sec) elapsed = 0:0:00:23 / Tue Apr 16 16:49:46 2019
GPGPU-Sim PTX: 8100000 instructions simulated : ctaid=(39,0,0) tid=(95,0,0)
GPGPU-Sim PTX: 8200000 instructions simulated : ctaid=(17,0,0) tid=(95,0,0)
GPGPU-Sim PTX: 8300000 instructions simulated : ctaid=(34,0,0) tid=(63,0,0)
GPGPU-Sim PTX: 8400000 instructions simulated : ctaid=(37,0,0) tid=(63,0,0)
GPGPU-Sim uArch: cycles simulated: 31500  inst.: 8391712 (ipc=266.4) sim_rate=349654 (inst/sec) elapsed = 0:0:00:24 / Tue Apr 16 16:49:47 2019
GPGPU-Sim PTX: 8500000 instructions simulated : ctaid=(4,0,0) tid=(95,0,0)
GPGPU-Sim PTX: 8600000 instructions simulated : ctaid=(6,0,0) tid=(31,0,0)
GPGPU-Sim PTX: 8700000 instructions simulated : ctaid=(40,0,0) tid=(63,0,0)
GPGPU-Sim PTX: 8800000 instructions simulated : ctaid=(8,0,0) tid=(63,0,0)
GPGPU-Sim uArch: cycles simulated: 33000  inst.: 8811360 (ipc=267.0) sim_rate=352454 (inst/sec) elapsed = 0:0:00:25 / Tue Apr 16 16:49:48 2019
GPGPU-Sim PTX: 8900000 instructions simulated : ctaid=(33,0,0) tid=(95,0,0)
GPGPU-Sim PTX: 9000000 instructions simulated : ctaid=(35,0,0) tid=(95,0,0)
GPGPU-Sim PTX: 9100000 instructions simulated : ctaid=(21,0,0) tid=(31,0,0)
GPGPU-Sim PTX: 9200000 instructions simulated : ctaid=(8,0,0) tid=(127,0,0)
GPGPU-Sim uArch: cycles simulated: 34500  inst.: 9187200 (ipc=266.3) sim_rate=353353 (inst/sec) elapsed = 0:0:00:26 / Tue Apr 16 16:49:49 2019
GPGPU-Sim PTX: 9300000 instructions simulated : ctaid=(40,0,0) tid=(31,0,0)
GPGPU-Sim PTX: 9400000 instructions simulated : ctaid=(2,0,0) tid=(63,0,0)
GPGPU-Sim PTX: 9500000 instructions simulated : ctaid=(22,0,0) tid=(127,0,0)
GPGPU-Sim uArch: cycles simulated: 36000  inst.: 9555840 (ipc=265.4) sim_rate=353920 (inst/sec) elapsed = 0:0:00:27 / Tue Apr 16 16:49:50 2019
GPGPU-Sim PTX: 9600000 instructions simulated : ctaid=(20,0,0) tid=(127,0,0)
GPGPU-Sim PTX: 9700000 instructions simulated : ctaid=(40,0,0) tid=(31,0,0)
GPGPU-Sim PTX: 9800000 instructions simulated : ctaid=(27,0,0) tid=(95,0,0)
GPGPU-Sim PTX: 9900000 instructions simulated : ctaid=(29,0,0) tid=(127,0,0)
GPGPU-Sim uArch: cycles simulated: 37500  inst.: 9946176 (ipc=265.2) sim_rate=355220 (inst/sec) elapsed = 0:0:00:28 / Tue Apr 16 16:49:51 2019
GPGPU-Sim PTX: 10000000 instructions simulated : ctaid=(25,0,0) tid=(31,0,0)
GPGPU-Sim PTX: 10100000 instructions simulated : ctaid=(25,0,0) tid=(31,0,0)
GPGPU-Sim PTX: 10200000 instructions simulated : ctaid=(24,0,0) tid=(31,0,0)
GPGPU-Sim PTX: 10300000 instructions simulated : ctaid=(10,0,0) tid=(127,0,0)
GPGPU-Sim uArch: cycles simulated: 39000  inst.: 10369536 (ipc=265.9) sim_rate=357570 (inst/sec) elapsed = 0:0:00:29 / Tue Apr 16 16:49:52 2019
GPGPU-Sim PTX: 10400000 instructions simulated : ctaid=(26,0,0) tid=(63,0,0)
GPGPU-Sim PTX: 10500000 instructions simulated : ctaid=(42,0,0) tid=(95,0,0)
GPGPU-Sim PTX: 10600000 instructions simulated : ctaid=(1,0,0) tid=(127,0,0)
GPGPU-Sim PTX: 10700000 instructions simulated : ctaid=(21,0,0) tid=(95,0,0)
GPGPU-Sim uArch: cycles simulated: 40500  inst.: 10753888 (ipc=265.5) sim_rate=358462 (inst/sec) elapsed = 0:0:00:30 / Tue Apr 16 16:49:53 2019
GPGPU-Sim PTX: 10800000 instructions simulated : ctaid=(8,0,0) tid=(95,0,0)
GPGPU-Sim PTX: 10900000 instructions simulated : ctaid=(30,0,0) tid=(127,0,0)
GPGPU-Sim PTX: 11000000 instructions simulated : ctaid=(27,0,0) tid=(63,0,0)
GPGPU-Sim PTX: 11100000 instructions simulated : ctaid=(22,0,0) tid=(127,0,0)
GPGPU-Sim PTX: 11200000 instructions simulated : ctaid=(35,0,0) tid=(127,0,0)
GPGPU-Sim uArch: cycles simulated: 42500  inst.: 11234336 (ipc=264.3) sim_rate=351073 (inst/sec) elapsed = 0:0:00:32 / Tue Apr 16 16:49:55 2019
GPGPU-Sim PTX: 11300000 instructions simulated : ctaid=(27,0,0) tid=(95,0,0)
GPGPU-Sim PTX: 11400000 instructions simulated : ctaid=(23,0,0) tid=(127,0,0)
GPGPU-Sim uArch: cycles simulated: 43000  inst.: 11398912 (ipc=265.1) sim_rate=345421 (inst/sec) elapsed = 0:0:00:33 / Tue Apr 16 16:49:56 2019
GPGPU-Sim PTX: 11500000 instructions simulated : ctaid=(29,0,0) tid=(127,0,0)
GPGPU-Sim PTX: 11600000 instructions simulated : ctaid=(27,0,0) tid=(63,0,0)
GPGPU-Sim PTX: 11700000 instructions simulated : ctaid=(3,0,0) tid=(63,0,0)
GPGPU-Sim PTX: 11800000 instructions simulated : ctaid=(7,0,0) tid=(31,0,0)
GPGPU-Sim PTX: 11900000 instructions simulated : ctaid=(22,0,0) tid=(95,0,0)
GPGPU-Sim uArch: cycles simulated: 45000  inst.: 11889696 (ipc=264.2) sim_rate=349696 (inst/sec) elapsed = 0:0:00:34 / Tue Apr 16 16:49:57 2019
GPGPU-Sim PTX: 12000000 instructions simulated : ctaid=(9,0,0) tid=(95,0,0)
GPGPU-Sim PTX: 12100000 instructions simulated : ctaid=(8,0,0) tid=(127,0,0)
GPGPU-Sim PTX: 12200000 instructions simulated : ctaid=(21,0,0) tid=(95,0,0)
GPGPU-Sim PTX: 12300000 instructions simulated : ctaid=(20,0,0) tid=(95,0,0)
GPGPU-Sim uArch: cycles simulated: 46500  inst.: 12314752 (ipc=264.8) sim_rate=351850 (inst/sec) elapsed = 0:0:00:35 / Tue Apr 16 16:49:58 2019
GPGPU-Sim PTX: 12400000 instructions simulated : ctaid=(5,0,0) tid=(95,0,0)
GPGPU-Sim PTX: 12500000 instructions simulated : ctaid=(22,0,0) tid=(127,0,0)
GPGPU-Sim PTX: 12600000 instructions simulated : ctaid=(34,0,0) tid=(127,0,0)
GPGPU-Sim PTX: 12700000 instructions simulated : ctaid=(25,0,0) tid=(31,0,0)
GPGPU-Sim uArch: cycles simulated: 48000  inst.: 12689280 (ipc=264.4) sim_rate=352480 (inst/sec) elapsed = 0:0:00:36 / Tue Apr 16 16:49:59 2019
GPGPU-Sim PTX: 12800000 instructions simulated : ctaid=(43,0,0) tid=(63,0,0)
GPGPU-Sim PTX: 12900000 instructions simulated : ctaid=(0,0,0) tid=(31,0,0)
GPGPU-Sim PTX: 13000000 instructions simulated : ctaid=(16,0,0) tid=(31,0,0)
GPGPU-Sim uArch: cycles simulated: 49500  inst.: 13059520 (ipc=263.8) sim_rate=352960 (inst/sec) elapsed = 0:0:00:37 / Tue Apr 16 16:50:00 2019
GPGPU-Sim PTX: 13100000 instructions simulated : ctaid=(2,0,0) tid=(31,0,0)
GPGPU-Sim PTX: 13200000 instructions simulated : ctaid=(1,0,0) tid=(63,0,0)
GPGPU-Sim PTX: 13300000 instructions simulated : ctaid=(27,0,0) tid=(31,0,0)
GPGPU-Sim PTX: 13400000 instructions simulated : ctaid=(5,0,0) tid=(127,0,0)
GPGPU-Sim PTX: 13500000 instructions simulated : ctaid=(9,0,0) tid=(31,0,0)
GPGPU-Sim uArch: cycles simulated: 51000  inst.: 13483456 (ipc=264.4) sim_rate=354827 (inst/sec) elapsed = 0:0:00:38 / Tue Apr 16 16:50:01 2019
GPGPU-Sim PTX: 13600000 instructions simulated : ctaid=(34,0,0) tid=(127,0,0)
GPGPU-Sim PTX: 13700000 instructions simulated : ctaid=(9,0,0) tid=(31,0,0)
GPGPU-Sim PTX: 13800000 instructions simulated : ctaid=(42,0,0) tid=(127,0,0)
GPGPU-Sim PTX: 13900000 instructions simulated : ctaid=(41,0,0) tid=(127,0,0)
GPGPU-Sim uArch: cycles simulated: 52500  inst.: 13887136 (ipc=264.5) sim_rate=356080 (inst/sec) elapsed = 0:0:00:39 / Tue Apr 16 16:50:02 2019
GPGPU-Sim PTX: 14000000 instructions simulated : ctaid=(43,0,0) tid=(31,0,0)
GPGPU-Sim PTX: 14100000 instructions simulated : ctaid=(17,0,0) tid=(127,0,0)
GPGPU-Sim PTX: 14200000 instructions simulated : ctaid=(37,0,0) tid=(127,0,0)
GPGPU-Sim uArch: cycles simulated: 54000  inst.: 14256000 (ipc=264.0) sim_rate=356400 (inst/sec) elapsed = 0:0:00:40 / Tue Apr 16 16:50:03 2019
GPGPU-Sim PTX: 14300000 instructions simulated : ctaid=(38,0,0) tid=(127,0,0)
GPGPU-Sim PTX: 14400000 instructions simulated : ctaid=(5,0,0) tid=(95,0,0)
GPGPU-Sim PTX: 14500000 instructions simulated : ctaid=(17,0,0) tid=(31,0,0)
GPGPU-Sim PTX: 14600000 instructions simulated : ctaid=(34,0,0) tid=(63,0,0)
GPGPU-Sim uArch: cycles simulated: 55500  inst.: 14625440 (ipc=263.5) sim_rate=356718 (inst/sec) elapsed = 0:0:00:41 / Tue Apr 16 16:50:04 2019
GPGPU-Sim PTX: 14700000 instructions simulated : ctaid=(32,0,0) tid=(95,0,0)
GPGPU-Sim uArch: Shader 1 finished CTA #0 (56529,0), 2 CTAs running
GPGPU-Sim uArch: core:  1, cta: 0 initialized @(56530,0)
GPGPU-Sim uArch: Shader 1 finished CTA #1 (56682,0), 2 CTAs running
GPGPU-Sim uArch: core:  1, cta: 1 initialized @(56683,0)
GPGPU-Sim uArch: Shader 6 finished CTA #0 (56703,0), 2 CTAs running
GPGPU-Sim uArch: core:  6, cta: 0 initialized @(56704,0)
GPGPU-Sim uArch: Shader 7 finished CTA #0 (56718,0), 2 CTAs running
GPGPU-Sim uArch: core:  7, cta: 0 initialized @(56719,0)
GPGPU-Sim uArch: Shader 5 finished CTA #0 (56721,0), 2 CTAs running
GPGPU-Sim uArch: core:  5, cta: 0 initialized @(56722,0)
GPGPU-Sim uArch: Shader 8 finished CTA #0 (56723,0), 2 CTAs running
GPGPU-Sim uArch: core:  8, cta: 0 initialized @(56724,0)
GPGPU-Sim uArch: Shader 12 finished CTA #0 (56739,0), 2 CTAs running
GPGPU-Sim uArch: core: 12, cta: 0 initialized @(56740,0)
GPGPU-Sim uArch: Shader 9 finished CTA #0 (56745,0), 2 CTAs running
GPGPU-Sim uArch: core:  9, cta: 0 initialized @(56746,0)
GPGPU-Sim uArch: Shader 11 finished CTA #0 (56766,0), 2 CTAs running
GPGPU-Sim uArch: core: 11, cta: 0 initialized @(56767,0)
GPGPU-Sim uArch: Shader 8 finished CTA #1 (56769,0), 2 CTAs running
GPGPU-Sim uArch: core:  8, cta: 1 initialized @(56770,0)
GPGPU-Sim uArch: Shader 2 finished CTA #0 (56771,0), 2 CTAs running
GPGPU-Sim uArch: core:  2, cta: 0 initialized @(56772,0)
GPGPU-Sim uArch: Shader 4 finished CTA #0 (56772,0), 2 CTAs running
GPGPU-Sim uArch: core:  4, cta: 0 initialized @(56773,0)
GPGPU-Sim uArch: Shader 1 finished CTA #2 (56774,0), 2 CTAs running
GPGPU-Sim uArch: core:  1, cta: 2 initialized @(56775,0)
GPGPU-Sim uArch: Shader 13 finished CTA #0 (56783,0), 2 CTAs running
GPGPU-Sim uArch: core: 13, cta: 0 initialized @(56784,0)
GPGPU-Sim uArch: Shader 10 finished CTA #0 (56784,0), 2 CTAs running
GPGPU-Sim uArch: core: 10, cta: 0 initialized @(56785,0)
GPGPU-Sim uArch: Shader 9 finished CTA #1 (56817,0), 2 CTAs running
GPGPU-Sim uArch: core:  9, cta: 1 initialized @(56818,0)
GPGPU-Sim uArch: Shader 14 finished CTA #0 (56819,0), 2 CTAs running
GPGPU-Sim uArch: core: 14, cta: 0 initialized @(56820,0)
GPGPU-Sim uArch: Shader 13 finished CTA #1 (56840,0), 2 CTAs running
GPGPU-Sim uArch: core: 13, cta: 1 initialized @(56841,0)
GPGPU-Sim uArch: Shader 7 finished CTA #1 (56843,0), 2 CTAs running
GPGPU-Sim uArch: core:  7, cta: 1 initialized @(56844,0)
GPGPU-Sim uArch: Shader 6 finished CTA #1 (56862,0), 2 CTAs running
GPGPU-Sim uArch: core:  6, cta: 1 initialized @(56863,0)
GPGPU-Sim uArch: Shader 2 finished CTA #1 (56867,0), 2 CTAs running
GPGPU-Sim uArch: core:  2, cta: 1 initialized @(56868,0)
GPGPU-Sim uArch: Shader 5 finished CTA #1 (56876,0), 2 CTAs running
GPGPU-Sim uArch: core:  5, cta: 1 initialized @(56877,0)
GPGPU-Sim uArch: Shader 3 finished CTA #0 (56877,0), 2 CTAs running
GPGPU-Sim uArch: core:  3, cta: 0 initialized @(56878,0)
GPGPU-Sim uArch: Shader 14 finished CTA #1 (56879,0), 2 CTAs running
GPGPU-Sim uArch: core: 14, cta: 1 initialized @(56880,0)
GPGPU-Sim uArch: Shader 4 finished CTA #1 (56886,0), 2 CTAs running
GPGPU-Sim uArch: core:  4, cta: 1 initialized @(56887,0)
GPGPU-Sim uArch: Shader 12 finished CTA #1 (56898,0), 2 CTAs running
GPGPU-Sim uArch: core: 12, cta: 1 initialized @(56899,0)
GPGPU-Sim uArch: Shader 10 finished CTA #1 (56904,0), 2 CTAs running
GPGPU-Sim uArch: core: 10, cta: 1 initialized @(56905,0)
GPGPU-Sim uArch: Shader 9 finished CTA #2 (56947,0), 2 CTAs running
GPGPU-Sim uArch: core:  9, cta: 2 initialized @(56948,0)
GPGPU-Sim uArch: Shader 0 finished CTA #0 (56955,0), 2 CTAs running
GPGPU-Sim uArch: core:  0, cta: 0 initialized @(56956,0)
GPGPU-Sim uArch: Shader 5 finished CTA #2 (56961,0), 2 CTAs running
GPGPU-Sim uArch: core:  5, cta: 2 initialized @(56962,0)
GPGPU-Sim uArch: Shader 7 finished CTA #2 (56977,0), 2 CTAs running
GPGPU-Sim uArch: core:  7, cta: 2 initialized @(56978,0)
GPGPU-Sim uArch: Shader 12 finished CTA #2 (56982,0), 2 CTAs running
GPGPU-Sim uArch: Shader 13 finished CTA #2 (56982,0), 2 CTAs running
GPGPU-Sim uArch: core: 12, cta: 2 initialized @(56983,0)
GPGPU-Sim uArch: core: 13, cta: 2 initialized @(56983,0)
GPGPU-Sim uArch: Shader 11 finished CTA #1 (56989,0), 2 CTAs running
GPGPU-Sim uArch: core: 11, cta: 1 initialized @(56990,0)
GPGPU-Sim uArch: Shader 6 finished CTA #2 (56991,0), 2 CTAs running
GPGPU-Sim uArch: core:  6, cta: 2 initialized @(56992,0)
GPGPU-Sim uArch: cycles simulated: 57000  inst.: 14761888 (ipc=259.0) sim_rate=343299 (inst/sec) elapsed = 0:0:00:43 / Tue Apr 16 16:50:06 2019
GPGPU-Sim uArch: Shader 4 finished CTA #2 (57000,0), 2 CTAs running
GPGPU-Sim uArch: core:  4, cta: 2 initialized @(57001,0)
GPGPU-Sim uArch: Shader 8 finished CTA #2 (57005,0), 2 CTAs running
GPGPU-Sim uArch: core:  8, cta: 2 initialized @(57006,0)
GPGPU-Sim uArch: Shader 3 finished CTA #1 (57012,0), 2 CTAs running
GPGPU-Sim uArch: core:  3, cta: 1 initialized @(57013,0)
GPGPU-Sim PTX: 14800000 instructions simulated : ctaid=(55,0,0) tid=(31,0,0)
GPGPU-Sim uArch: Shader 10 finished CTA #2 (57018,0), 2 CTAs running
GPGPU-Sim uArch: core: 10, cta: 2 initialized @(57019,0)
GPGPU-Sim uArch: Shader 0 finished CTA #1 (57045,0), 2 CTAs running
GPGPU-Sim uArch: core:  0, cta: 1 initialized @(57046,0)
GPGPU-Sim uArch: Shader 2 finished CTA #2 (57053,0), 2 CTAs running
GPGPU-Sim uArch: core:  2, cta: 2 initialized @(57054,0)
GPGPU-Sim uArch: Shader 11 finished CTA #2 (57056,0), 2 CTAs running
GPGPU-Sim uArch: core: 11, cta: 2 initialized @(57057,0)
GPGPU-Sim uArch: Shader 14 finished CTA #2 (57066,0), 2 CTAs running
GPGPU-Sim uArch: core: 14, cta: 2 initialized @(57067,0)
GPGPU-Sim uArch: Shader 0 finished CTA #2 (57090,0), 2 CTAs running
GPGPU-Sim uArch: core:  0, cta: 2 initialized @(57091,0)
GPGPU-Sim uArch: Shader 3 finished CTA #2 (57099,0), 2 CTAs running
GPGPU-Sim uArch: core:  3, cta: 2 initialized @(57100,0)
GPGPU-Sim PTX: 14900000 instructions simulated : ctaid=(58,0,0) tid=(127,0,0)
GPGPU-Sim uArch: cycles simulated: 57500  inst.: 14948672 (ipc=260.0) sim_rate=332192 (inst/sec) elapsed = 0:0:00:45 / Tue Apr 16 16:50:08 2019
GPGPU-Sim PTX: 15000000 instructions simulated : ctaid=(80,0,0) tid=(95,0,0)
GPGPU-Sim PTX: 15100000 instructions simulated : ctaid=(67,0,0) tid=(95,0,0)
GPGPU-Sim PTX: 15200000 instructions simulated : ctaid=(74,0,0) tid=(63,0,0)
GPGPU-Sim PTX: 15300000 instructions simulated : ctaid=(70,0,0) tid=(127,0,0)
GPGPU-Sim uArch: cycles simulated: 58500  inst.: 15274368 (ipc=261.1) sim_rate=332051 (inst/sec) elapsed = 0:0:00:46 / Tue Apr 16 16:50:09 2019
GPGPU-Sim PTX: 15400000 instructions simulated : ctaid=(49,0,0) tid=(31,0,0)
GPGPU-Sim PTX: 15500000 instructions simulated : ctaid=(81,0,0) tid=(95,0,0)
GPGPU-Sim PTX: 15600000 instructions simulated : ctaid=(79,0,0) tid=(95,0,0)
GPGPU-Sim PTX: 15700000 instructions simulated : ctaid=(50,0,0) tid=(31,0,0)
GPGPU-Sim PTX: 15800000 instructions simulated : ctaid=(64,0,0) tid=(63,0,0)
GPGPU-Sim uArch: cycles simulated: 59500  inst.: 15841120 (ipc=266.2) sim_rate=337045 (inst/sec) elapsed = 0:0:00:47 / Tue Apr 16 16:50:10 2019
GPGPU-Sim PTX: 15900000 instructions simulated : ctaid=(67,0,0) tid=(31,0,0)
GPGPU-Sim PTX: 16000000 instructions simulated : ctaid=(53,0,0) tid=(63,0,0)
GPGPU-Sim PTX: 16100000 instructions simulated : ctaid=(67,0,0) tid=(127,0,0)
GPGPU-Sim PTX: 16200000 instructions simulated : ctaid=(78,0,0) tid=(95,0,0)
GPGPU-Sim uArch: cycles simulated: 60000  inst.: 16167040 (ipc=269.5) sim_rate=336813 (inst/sec) elapsed = 0:0:00:48 / Tue Apr 16 16:50:11 2019
GPGPU-Sim PTX: 16300000 instructions simulated : ctaid=(55,0,0) tid=(31,0,0)
GPGPU-Sim uArch: cycles simulated: 60500  inst.: 16319136 (ipc=269.7) sim_rate=333043 (inst/sec) elapsed = 0:0:00:49 / Tue Apr 16 16:50:12 2019
GPGPU-Sim PTX: 16400000 instructions simulated : ctaid=(65,0,0) tid=(127,0,0)
GPGPU-Sim PTX: 16500000 instructions simulated : ctaid=(71,0,0) tid=(63,0,0)
GPGPU-Sim PTX: 16600000 instructions simulated : ctaid=(89,0,0) tid=(95,0,0)
GPGPU-Sim PTX: 16700000 instructions simulated : ctaid=(49,0,0) tid=(31,0,0)
GPGPU-Sim uArch: cycles simulated: 61500  inst.: 16705728 (ipc=271.6) sim_rate=334114 (inst/sec) elapsed = 0:0:00:50 / Tue Apr 16 16:50:13 2019
GPGPU-Sim PTX: 16800000 instructions simulated : ctaid=(52,0,0) tid=(127,0,0)
GPGPU-Sim PTX: 16900000 instructions simulated : ctaid=(84,0,0) tid=(31,0,0)
GPGPU-Sim PTX: 17000000 instructions simulated : ctaid=(66,0,0) tid=(127,0,0)
GPGPU-Sim PTX: 17100000 instructions simulated : ctaid=(84,0,0) tid=(127,0,0)
GPGPU-Sim uArch: cycles simulated: 62500  inst.: 17096896 (ipc=273.6) sim_rate=335233 (inst/sec) elapsed = 0:0:00:51 / Tue Apr 16 16:50:14 2019
GPGPU-Sim PTX: 17200000 instructions simulated : ctaid=(75,0,0) tid=(31,0,0)
GPGPU-Sim PTX: 17300000 instructions simulated : ctaid=(70,0,0) tid=(63,0,0)
GPGPU-Sim PTX: 17400000 instructions simulated : ctaid=(59,0,0) tid=(127,0,0)
GPGPU-Sim PTX: 17500000 instructions simulated : ctaid=(56,0,0) tid=(127,0,0)
GPGPU-Sim uArch: cycles simulated: 63500  inst.: 17489312 (ipc=275.4) sim_rate=336332 (inst/sec) elapsed = 0:0:00:52 / Tue Apr 16 16:50:15 2019
GPGPU-Sim PTX: 17600000 instructions simulated : ctaid=(82,0,0) tid=(95,0,0)
GPGPU-Sim PTX: 17700000 instructions simulated : ctaid=(83,0,0) tid=(31,0,0)
GPGPU-Sim PTX: 17800000 instructions simulated : ctaid=(82,0,0) tid=(63,0,0)
GPGPU-Sim PTX: 17900000 instructions simulated : ctaid=(84,0,0) tid=(127,0,0)
GPGPU-Sim uArch: cycles simulated: 64500  inst.: 17873664 (ipc=277.1) sim_rate=337238 (inst/sec) elapsed = 0:0:00:53 / Tue Apr 16 16:50:16 2019
GPGPU-Sim PTX: 18000000 instructions simulated : ctaid=(54,0,0) tid=(31,0,0)
GPGPU-Sim PTX: 18100000 instructions simulated : ctaid=(66,0,0) tid=(31,0,0)
GPGPU-Sim uArch: cycles simulated: 65000  inst.: 18065280 (ipc=277.9) sim_rate=334542 (inst/sec) elapsed = 0:0:00:54 / Tue Apr 16 16:50:17 2019
GPGPU-Sim PTX: 18200000 instructions simulated : ctaid=(84,0,0) tid=(95,0,0)
GPGPU-Sim PTX: 18300000 instructions simulated : ctaid=(75,0,0) tid=(31,0,0)
GPGPU-Sim PTX: 18400000 instructions simulated : ctaid=(46,0,0) tid=(95,0,0)
GPGPU-Sim PTX: 18500000 instructions simulated : ctaid=(89,0,0) tid=(127,0,0)
GPGPU-Sim uArch: cycles simulated: 66000  inst.: 18451040 (ipc=279.6) sim_rate=335473 (inst/sec) elapsed = 0:0:00:55 / Tue Apr 16 16:50:18 2019
GPGPU-Sim PTX: 18600000 instructions simulated : ctaid=(85,0,0) tid=(31,0,0)
GPGPU-Sim PTX: 18700000 instructions simulated : ctaid=(68,0,0) tid=(63,0,0)
GPGPU-Sim PTX: 18800000 instructions simulated : ctaid=(83,0,0) tid=(127,0,0)
GPGPU-Sim uArch: cycles simulated: 67000  inst.: 18838656 (ipc=281.2) sim_rate=336404 (inst/sec) elapsed = 0:0:00:56 / Tue Apr 16 16:50:19 2019
GPGPU-Sim PTX: 18900000 instructions simulated : ctaid=(86,0,0) tid=(127,0,0)
GPGPU-Sim PTX: 19000000 instructions simulated : ctaid=(81,0,0) tid=(31,0,0)
GPGPU-Sim PTX: 19100000 instructions simulated : ctaid=(79,0,0) tid=(127,0,0)
GPGPU-Sim PTX: 19200000 instructions simulated : ctaid=(50,0,0) tid=(127,0,0)
GPGPU-Sim uArch: cycles simulated: 68000  inst.: 19226656 (ipc=282.7) sim_rate=337309 (inst/sec) elapsed = 0:0:00:57 / Tue Apr 16 16:50:20 2019
GPGPU-Sim PTX: 19300000 instructions simulated : ctaid=(77,0,0) tid=(127,0,0)
GPGPU-Sim PTX: 19400000 instructions simulated : ctaid=(57,0,0) tid=(31,0,0)
GPGPU-Sim PTX: 19500000 instructions simulated : ctaid=(66,0,0) tid=(31,0,0)
GPGPU-Sim PTX: 19600000 instructions simulated : ctaid=(62,0,0) tid=(95,0,0)
GPGPU-Sim uArch: cycles simulated: 69000  inst.: 19618432 (ipc=284.3) sim_rate=338248 (inst/sec) elapsed = 0:0:00:58 / Tue Apr 16 16:50:21 2019
GPGPU-Sim PTX: 19700000 instructions simulated : ctaid=(86,0,0) tid=(31,0,0)
GPGPU-Sim PTX: 19800000 instructions simulated : ctaid=(87,0,0) tid=(31,0,0)
GPGPU-Sim PTX: 19900000 instructions simulated : ctaid=(67,0,0) tid=(63,0,0)
GPGPU-Sim PTX: 20000000 instructions simulated : ctaid=(89,0,0) tid=(63,0,0)
GPGPU-Sim uArch: cycles simulated: 70000  inst.: 20006688 (ipc=285.8) sim_rate=339096 (inst/sec) elapsed = 0:0:00:59 / Tue Apr 16 16:50:22 2019
GPGPU-Sim PTX: 20100000 instructions simulated : ctaid=(54,0,0) tid=(31,0,0)
GPGPU-Sim PTX: 20200000 instructions simulated : ctaid=(76,0,0) tid=(95,0,0)
GPGPU-Sim PTX: 20300000 instructions simulated : ctaid=(84,0,0) tid=(31,0,0)
GPGPU-Sim PTX: 20400000 instructions simulated : ctaid=(75,0,0) tid=(63,0,0)
GPGPU-Sim uArch: cycles simulated: 71000  inst.: 20398656 (ipc=287.3) sim_rate=339977 (inst/sec) elapsed = 0:0:01:00 / Tue Apr 16 16:50:23 2019
GPGPU-Sim PTX: 20500000 instructions simulated : ctaid=(56,0,0) tid=(63,0,0)
GPGPU-Sim PTX: 20600000 instructions simulated : ctaid=(77,0,0) tid=(63,0,0)
GPGPU-Sim uArch: cycles simulated: 71500  inst.: 20590784 (ipc=288.0) sim_rate=337553 (inst/sec) elapsed = 0:0:01:01 / Tue Apr 16 16:50:24 2019
GPGPU-Sim PTX: 20700000 instructions simulated : ctaid=(59,0,0) tid=(63,0,0)
GPGPU-Sim PTX: 20800000 instructions simulated : ctaid=(78,0,0) tid=(63,0,0)
GPGPU-Sim PTX: 20900000 instructions simulated : ctaid=(76,0,0) tid=(63,0,0)
GPGPU-Sim PTX: 21000000 instructions simulated : ctaid=(65,0,0) tid=(63,0,0)
GPGPU-Sim uArch: cycles simulated: 72500  inst.: 20978496 (ipc=289.4) sim_rate=338362 (inst/sec) elapsed = 0:0:01:02 / Tue Apr 16 16:50:25 2019
GPGPU-Sim PTX: 21100000 instructions simulated : ctaid=(80,0,0) tid=(127,0,0)
GPGPU-Sim PTX: 21200000 instructions simulated : ctaid=(65,0,0) tid=(127,0,0)
GPGPU-Sim PTX: 21300000 instructions simulated : ctaid=(64,0,0) tid=(127,0,0)
GPGPU-Sim PTX: 21400000 instructions simulated : ctaid=(81,0,0) tid=(63,0,0)
GPGPU-Sim uArch: cycles simulated: 73500  inst.: 21361152 (ipc=290.6) sim_rate=339065 (inst/sec) elapsed = 0:0:01:03 / Tue Apr 16 16:50:26 2019
GPGPU-Sim PTX: 21500000 instructions simulated : ctaid=(47,0,0) tid=(31,0,0)
GPGPU-Sim PTX: 21600000 instructions simulated : ctaid=(63,0,0) tid=(127,0,0)
GPGPU-Sim PTX: 21700000 instructions simulated : ctaid=(66,0,0) tid=(63,0,0)
GPGPU-Sim PTX: 21800000 instructions simulated : ctaid=(52,0,0) tid=(63,0,0)
GPGPU-Sim uArch: cycles simulated: 74500  inst.: 21765440 (ipc=292.2) sim_rate=340085 (inst/sec) elapsed = 0:0:01:04 / Tue Apr 16 16:50:27 2019
GPGPU-Sim PTX: 21900000 instructions simulated : ctaid=(62,0,0) tid=(63,0,0)
GPGPU-Sim PTX: 22000000 instructions simulated : ctaid=(72,0,0) tid=(95,0,0)
GPGPU-Sim PTX: 22100000 instructions simulated : ctaid=(89,0,0) tid=(31,0,0)
GPGPU-Sim PTX: 22200000 instructions simulated : ctaid=(71,0,0) tid=(63,0,0)
GPGPU-Sim uArch: cycles simulated: 75500  inst.: 22161248 (ipc=293.5) sim_rate=340942 (inst/sec) elapsed = 0:0:01:05 / Tue Apr 16 16:50:28 2019
GPGPU-Sim PTX: 22300000 instructions simulated : ctaid=(55,0,0) tid=(127,0,0)
GPGPU-Sim PTX: 22400000 instructions simulated : ctaid=(87,0,0) tid=(95,0,0)
GPGPU-Sim PTX: 22500000 instructions simulated : ctaid=(88,0,0) tid=(95,0,0)
GPGPU-Sim uArch: cycles simulated: 76500  inst.: 22543648 (ipc=294.7) sim_rate=341570 (inst/sec) elapsed = 0:0:01:06 / Tue Apr 16 16:50:29 2019
GPGPU-Sim PTX: 22600000 instructions simulated : ctaid=(66,0,0) tid=(95,0,0)
GPGPU-Sim PTX: 22700000 instructions simulated : ctaid=(47,0,0) tid=(31,0,0)
GPGPU-Sim PTX: 22800000 instructions simulated : ctaid=(88,0,0) tid=(63,0,0)
GPGPU-Sim PTX: 22900000 instructions simulated : ctaid=(75,0,0) tid=(31,0,0)
GPGPU-Sim uArch: cycles simulated: 77500  inst.: 22926752 (ipc=295.8) sim_rate=342190 (inst/sec) elapsed = 0:0:01:07 / Tue Apr 16 16:50:30 2019
GPGPU-Sim PTX: 23000000 instructions simulated : ctaid=(86,0,0) tid=(95,0,0)
GPGPU-Sim PTX: 23100000 instructions simulated : ctaid=(55,0,0) tid=(31,0,0)
GPGPU-Sim PTX: 23200000 instructions simulated : ctaid=(67,0,0) tid=(63,0,0)
GPGPU-Sim PTX: 23300000 instructions simulated : ctaid=(53,0,0) tid=(63,0,0)
GPGPU-Sim uArch: cycles simulated: 78500  inst.: 23314336 (ipc=297.0) sim_rate=342857 (inst/sec) elapsed = 0:0:01:08 / Tue Apr 16 16:50:31 2019
GPGPU-Sim PTX: 23400000 instructions simulated : ctaid=(83,0,0) tid=(63,0,0)
GPGPU-Sim PTX: 23500000 instructions simulated : ctaid=(82,0,0) tid=(31,0,0)
GPGPU-Sim PTX: 23600000 instructions simulated : ctaid=(67,0,0) tid=(127,0,0)
GPGPU-Sim PTX: 23700000 instructions simulated : ctaid=(49,0,0) tid=(31,0,0)
GPGPU-Sim uArch: cycles simulated: 79500  inst.: 23698720 (ipc=298.1) sim_rate=343459 (inst/sec) elapsed = 0:0:01:09 / Tue Apr 16 16:50:32 2019
GPGPU-Sim PTX: 23800000 instructions simulated : ctaid=(87,0,0) tid=(127,0,0)
GPGPU-Sim PTX: 23900000 instructions simulated : ctaid=(64,0,0) tid=(31,0,0)
GPGPU-Sim PTX: 24000000 instructions simulated : ctaid=(64,0,0) tid=(95,0,0)
GPGPU-Sim PTX: 24100000 instructions simulated : ctaid=(81,0,0) tid=(63,0,0)
GPGPU-Sim uArch: cycles simulated: 80500  inst.: 24087104 (ipc=299.2) sim_rate=344101 (inst/sec) elapsed = 0:0:01:10 / Tue Apr 16 16:50:33 2019
GPGPU-Sim PTX: 24200000 instructions simulated : ctaid=(81,0,0) tid=(127,0,0)
GPGPU-Sim PTX: 24300000 instructions simulated : ctaid=(65,0,0) tid=(63,0,0)
GPGPU-Sim PTX: 24400000 instructions simulated : ctaid=(82,0,0) tid=(63,0,0)
GPGPU-Sim PTX: 24500000 instructions simulated : ctaid=(70,0,0) tid=(95,0,0)
GPGPU-Sim uArch: cycles simulated: 81500  inst.: 24479776 (ipc=300.4) sim_rate=344785 (inst/sec) elapsed = 0:0:01:11 / Tue Apr 16 16:50:34 2019
GPGPU-Sim PTX: 24600000 instructions simulated : ctaid=(87,0,0) tid=(95,0,0)
GPGPU-Sim PTX: 24700000 instructions simulated : ctaid=(55,0,0) tid=(31,0,0)
GPGPU-Sim PTX: 24800000 instructions simulated : ctaid=(65,0,0) tid=(31,0,0)
GPGPU-Sim PTX: 24900000 instructions simulated : ctaid=(74,0,0) tid=(95,0,0)
GPGPU-Sim uArch: cycles simulated: 82500  inst.: 24867168 (ipc=301.4) sim_rate=345377 (inst/sec) elapsed = 0:0:01:12 / Tue Apr 16 16:50:35 2019
GPGPU-Sim PTX: 25000000 instructions simulated : ctaid=(54,0,0) tid=(31,0,0)
GPGPU-Sim PTX: 25100000 instructions simulated : ctaid=(54,0,0) tid=(31,0,0)
GPGPU-Sim PTX: 25200000 instructions simulated : ctaid=(52,0,0) tid=(95,0,0)
GPGPU-Sim PTX: 25300000 instructions simulated : ctaid=(54,0,0) tid=(127,0,0)
GPGPU-Sim uArch: cycles simulated: 83500  inst.: 25255488 (ipc=302.5) sim_rate=345965 (inst/sec) elapsed = 0:0:01:13 / Tue Apr 16 16:50:36 2019
GPGPU-Sim PTX: 25400000 instructions simulated : ctaid=(48,0,0) tid=(127,0,0)
GPGPU-Sim PTX: 25500000 instructions simulated : ctaid=(77,0,0) tid=(63,0,0)
GPGPU-Sim PTX: 25600000 instructions simulated : ctaid=(67,0,0) tid=(127,0,0)
GPGPU-Sim PTX: 25700000 instructions simulated : ctaid=(86,0,0) tid=(127,0,0)
GPGPU-Sim uArch: cycles simulated: 84500  inst.: 25645216 (ipc=303.5) sim_rate=346556 (inst/sec) elapsed = 0:0:01:14 / Tue Apr 16 16:50:37 2019
GPGPU-Sim PTX: 25800000 instructions simulated : ctaid=(77,0,0) tid=(31,0,0)
GPGPU-Sim uArch: cycles simulated: 85000  inst.: 25835520 (ipc=303.9) sim_rate=344473 (inst/sec) elapsed = 0:0:01:15 / Tue Apr 16 16:50:38 2019
GPGPU-Sim PTX: 25900000 instructions simulated : ctaid=(73,0,0) tid=(63,0,0)
GPGPU-Sim PTX: 26000000 instructions simulated : ctaid=(77,0,0) tid=(31,0,0)
GPGPU-Sim uArch: cycles simulated: 85500  inst.: 26029248 (ipc=304.4) sim_rate=342490 (inst/sec) elapsed = 0:0:01:16 / Tue Apr 16 16:50:39 2019
GPGPU-Sim PTX: 26100000 instructions simulated : ctaid=(74,0,0) tid=(31,0,0)
GPGPU-Sim PTX: 26200000 instructions simulated : ctaid=(63,0,0) tid=(63,0,0)
GPGPU-Sim uArch: cycles simulated: 86000  inst.: 26219808 (ipc=304.9) sim_rate=340516 (inst/sec) elapsed = 0:0:01:17 / Tue Apr 16 16:50:40 2019
GPGPU-Sim PTX: 26300000 instructions simulated : ctaid=(69,0,0) tid=(31,0,0)
GPGPU-Sim PTX: 26400000 instructions simulated : ctaid=(88,0,0) tid=(95,0,0)
GPGPU-Sim PTX: 26500000 instructions simulated : ctaid=(46,0,0) tid=(95,0,0)
GPGPU-Sim PTX: 26600000 instructions simulated : ctaid=(81,0,0) tid=(31,0,0)
GPGPU-Sim uArch: cycles simulated: 87000  inst.: 26599808 (ipc=305.7) sim_rate=341023 (inst/sec) elapsed = 0:0:01:18 / Tue Apr 16 16:50:41 2019
GPGPU-Sim PTX: 26700000 instructions simulated : ctaid=(58,0,0) tid=(31,0,0)
GPGPU-Sim PTX: 26800000 instructions simulated : ctaid=(52,0,0) tid=(127,0,0)
GPGPU-Sim PTX: 26900000 instructions simulated : ctaid=(74,0,0) tid=(95,0,0)
GPGPU-Sim PTX: 27000000 instructions simulated : ctaid=(55,0,0) tid=(31,0,0)
GPGPU-Sim uArch: cycles simulated: 88000  inst.: 26990208 (ipc=306.7) sim_rate=341648 (inst/sec) elapsed = 0:0:01:19 / Tue Apr 16 16:50:42 2019
GPGPU-Sim PTX: 27100000 instructions simulated : ctaid=(45,0,0) tid=(63,0,0)
GPGPU-Sim PTX: 27200000 instructions simulated : ctaid=(68,0,0) tid=(63,0,0)
GPGPU-Sim PTX: 27300000 instructions simulated : ctaid=(69,0,0) tid=(31,0,0)
GPGPU-Sim PTX: 27400000 instructions simulated : ctaid=(78,0,0) tid=(63,0,0)
GPGPU-Sim uArch: cycles simulated: 89000  inst.: 27385632 (ipc=307.7) sim_rate=342320 (inst/sec) elapsed = 0:0:01:20 / Tue Apr 16 16:50:43 2019
GPGPU-Sim PTX: 27500000 instructions simulated : ctaid=(47,0,0) tid=(63,0,0)
GPGPU-Sim PTX: 27600000 instructions simulated : ctaid=(88,0,0) tid=(95,0,0)
GPGPU-Sim PTX: 27700000 instructions simulated : ctaid=(79,0,0) tid=(127,0,0)
GPGPU-Sim PTX: 27800000 instructions simulated : ctaid=(48,0,0) tid=(31,0,0)
GPGPU-Sim uArch: cycles simulated: 90000  inst.: 27774848 (ipc=308.6) sim_rate=342899 (inst/sec) elapsed = 0:0:01:21 / Tue Apr 16 16:50:44 2019
GPGPU-Sim PTX: 27900000 instructions simulated : ctaid=(52,0,0) tid=(127,0,0)
GPGPU-Sim PTX: 28000000 instructions simulated : ctaid=(60,0,0) tid=(63,0,0)
GPGPU-Sim PTX: 28100000 instructions simulated : ctaid=(72,0,0) tid=(127,0,0)
GPGPU-Sim PTX: 28200000 instructions simulated : ctaid=(62,0,0) tid=(127,0,0)
GPGPU-Sim uArch: cycles simulated: 91000  inst.: 28162880 (ipc=309.5) sim_rate=343449 (inst/sec) elapsed = 0:0:01:22 / Tue Apr 16 16:50:45 2019
GPGPU-Sim PTX: 28300000 instructions simulated : ctaid=(85,0,0) tid=(31,0,0)
GPGPU-Sim PTX: 28400000 instructions simulated : ctaid=(67,0,0) tid=(63,0,0)
GPGPU-Sim PTX: 28500000 instructions simulated : ctaid=(64,0,0) tid=(127,0,0)
GPGPU-Sim uArch: cycles simulated: 92000  inst.: 28543328 (ipc=310.3) sim_rate=343895 (inst/sec) elapsed = 0:0:01:23 / Tue Apr 16 16:50:46 2019
GPGPU-Sim PTX: 28600000 instructions simulated : ctaid=(49,0,0) tid=(31,0,0)
GPGPU-Sim PTX: 28700000 instructions simulated : ctaid=(59,0,0) tid=(31,0,0)
GPGPU-Sim PTX: 28800000 instructions simulated : ctaid=(49,0,0) tid=(95,0,0)
GPGPU-Sim PTX: 28900000 instructions simulated : ctaid=(81,0,0) tid=(127,0,0)
GPGPU-Sim uArch: cycles simulated: 93000  inst.: 28930080 (ipc=311.1) sim_rate=344405 (inst/sec) elapsed = 0:0:01:24 / Tue Apr 16 16:50:47 2019
GPGPU-Sim PTX: 29000000 instructions simulated : ctaid=(52,0,0) tid=(63,0,0)
GPGPU-Sim PTX: 29100000 instructions simulated : ctaid=(81,0,0) tid=(127,0,0)
GPGPU-Sim PTX: 29200000 instructions simulated : ctaid=(60,0,0) tid=(95,0,0)
GPGPU-Sim PTX: 29300000 instructions simulated : ctaid=(65,0,0) tid=(127,0,0)
GPGPU-Sim uArch: cycles simulated: 94000  inst.: 29311392 (ipc=311.8) sim_rate=344839 (inst/sec) elapsed = 0:0:01:25 / Tue Apr 16 16:50:48 2019
GPGPU-Sim PTX: 29400000 instructions simulated : ctaid=(77,0,0) tid=(127,0,0)
GPGPU-Sim PTX: 29500000 instructions simulated : ctaid=(57,0,0) tid=(63,0,0)
GPGPU-Sim uArch: Shader 1 finished CTA #0 (94596,0), 2 CTAs running
GPGPU-Sim uArch: core:  1, cta: 0 initialized @(94597,0)
GPGPU-Sim uArch: Shader 1 finished CTA #1 (94758,0), 2 CTAs running
GPGPU-Sim uArch: core:  1, cta: 1 initialized @(94759,0)
GPGPU-Sim uArch: Shader 1 finished CTA #2 (94976,0), 2 CTAs running
GPGPU-Sim uArch: core:  1, cta: 2 initialized @(94977,0)
GPGPU-Sim uArch: cycles simulated: 95000  inst.: 29464320 (ipc=310.2) sim_rate=342608 (inst/sec) elapsed = 0:0:01:26 / Tue Apr 16 16:50:49 2019
GPGPU-Sim uArch: Shader 8 finished CTA #0 (95069,0), 2 CTAs running
GPGPU-Sim uArch: core:  8, cta: 0 initialized @(95070,0)
GPGPU-Sim uArch: Shader 10 finished CTA #0 (95075,0), 2 CTAs running
GPGPU-Sim uArch: core: 10, cta: 0 initialized @(95076,0)
GPGPU-Sim uArch: Shader 4 finished CTA #0 (95111,0), 2 CTAs running
GPGPU-Sim uArch: core:  4, cta: 0 initialized @(95112,0)
GPGPU-Sim uArch: Shader 9 finished CTA #0 (95132,0), 2 CTAs running
GPGPU-Sim uArch: core:  9, cta: 0 initialized @(95133,0)
GPGPU-Sim uArch: Shader 6 finished CTA #0 (95179,0), 2 CTAs running
GPGPU-Sim uArch: core:  6, cta: 0 initialized @(95180,0)
GPGPU-Sim uArch: Shader 5 finished CTA #1 (95201,0), 2 CTAs running
GPGPU-Sim uArch: core:  5, cta: 1 initialized @(95202,0)
GPGPU-Sim uArch: Shader 4 finished CTA #1 (95210,0), 2 CTAs running
GPGPU-Sim uArch: core:  4, cta: 1 initialized @(95211,0)
GPGPU-Sim uArch: Shader 5 finished CTA #2 (95213,0), 2 CTAs running
GPGPU-Sim uArch: core:  5, cta: 2 initialized @(95214,0)
GPGPU-Sim uArch: Shader 5 finished CTA #0 (95243,0), 2 CTAs running
GPGPU-Sim uArch: core:  5, cta: 0 initialized @(95244,0)
GPGPU-Sim uArch: Shader 8 finished CTA #1 (95247,0), 2 CTAs running
GPGPU-Sim uArch: core:  8, cta: 1 initialized @(95248,0)
GPGPU-Sim uArch: Shader 6 finished CTA #1 (95248,0), 2 CTAs running
GPGPU-Sim uArch: core:  6, cta: 1 initialized @(95249,0)
GPGPU-Sim uArch: Shader 9 finished CTA #1 (95263,0), 2 CTAs running
GPGPU-Sim uArch: core:  9, cta: 1 initialized @(95264,0)
GPGPU-Sim uArch: Shader 12 finished CTA #0 (95264,0), 2 CTAs running
GPGPU-Sim uArch: core: 12, cta: 0 initialized @(95265,0)
GPGPU-Sim uArch: Shader 10 finished CTA #1 (95272,0), 2 CTAs running
GPGPU-Sim uArch: core: 10, cta: 1 initialized @(95273,0)
GPGPU-Sim uArch: Shader 4 finished CTA #2 (95286,0), 2 CTAs running
GPGPU-Sim uArch: core:  4, cta: 2 initialized @(95287,0)
GPGPU-Sim uArch: Shader 8 finished CTA #2 (95312,0), 2 CTAs running
GPGPU-Sim uArch: core:  8, cta: 2 initialized @(95313,0)
GPGPU-Sim uArch: Shader 2 finished CTA #0 (95316,0), 2 CTAs running
GPGPU-Sim uArch: core:  2, cta: 0 initialized @(95317,0)
GPGPU-Sim uArch: Shader 14 finished CTA #0 (95317,0), 2 CTAs running
GPGPU-Sim uArch: core: 14, cta: 0 initialized @(95318,0)
GPGPU-Sim uArch: Shader 11 finished CTA #0 (95320,0), 2 CTAs running
GPGPU-Sim uArch: core: 11, cta: 0 initialized @(95321,0)
[...]
traffic_breakdown_memtocore[GLOBAL_ACC_W] = 196608 {8:24576,}
traffic_breakdown_memtocore[INST_ACC_R] = 2758080 {136:20280,}
maxmrqlatency = 176 
maxdqlatency = 0 
maxmflatency = 748 
averagemflatency = 252 
max_icnt2mem_latency = 329 
max_icnt2sh_latency = 363091 
mrq_lat_table:2515 	333 	285 	1574 	1675 	1726 	1241 	25 	0 	0 	0 	0 	0 	0 	0 	0 	0 	0 	0 	0 	0 	0 	0 	0 	0 	0 	0 	0 	0 	0 	0 	0 	
dq_lat_table:0 	0 	0 	0 	0 	0 	0 	0 	0 	0 	0 	0 	0 	0 	0 	0 	0 	0 	0 	0 	0 	0 	0 	0 	0 	0 	0 	0 	0 	0 	0 	0 	
mf_lat_table:0 	0 	0 	0 	0 	0 	0 	16671 	9252 	539 	0 	0 	0 	0 	0 	0 	0 	0 	0 	0 	0 	0 	0 	0 	0 	0 	0 	0 	0 	0 	0 	0 	
icnt2mem_lat_table:0 	0 	0 	22496 	1275 	10376 	11056 	1418 	121 	0 	0 	0 	0 	0 	0 	0 	0 	0 	0 	0 	0 	0 	0 	0 	
icnt2sh_lat_table:0 	0 	0 	747 	933 	204 	2 	0 	0 	0 	0 	0 	0 	0 	0 	2880 	2880 	11520 	7296 	0 	0 	0 	0 	0 	
mf_lat_pw_table:0 	0 	0 	0 	0 	0 	0 	63 	24 	0 	0 	0 	0 	0 	0 	0 	0 	0 	0 	0 	0 	0 	0 	0 	0 	0 	0 	0 	0 	0 	0 	0 	
maximum concurrent accesses to same row:
dram[0]:         7         8         6         5        10        10         0         0         0         0         0         0         0         0         0         0 
dram[1]:         8         8         6         4        10        10         0         0         0         0         0         0         0         0         0         0 
dram[2]:         8         8         6         4        10        12         0         0         0         0         0         0         0         0         0         0 
dram[3]:         8         8         6         4        10        12         0         0         0         0         0         0         0         0         0         0 
dram[4]:         8         8         6         4        10        12         0         0         0         0         0         0         0         0         0         0 
dram[5]:         7         8         6         4        10        12         0         0         0         0         0         0         0         0         0         0 
maximum service time to same row:
dram[0]:    132356    128090    175578    207385    320214    320343      3210      3238     97394     97368    174366    210516     55812     55944     56134     56275 
dram[1]:    132083    127587    174927    206703    320224    320400      3213      3244     97418     97397    174372    210519     55832     55871     56089     56185 
dram[2]:    131419    126932    174258    205989    320244    320437      3244      3256     97381     97426    174704    210871     55840     55907     56141     56260 
dram[3]:    130694    126317    209431    206233    320263    320447      3257      3262     97388     97432    210496    211501     55803     55813     56083     56184 
dram[4]:    130058    125636    208734    205534    320299    320472      3213      3251     97235     97388    210482    211506     55829     55828     56119     56156 
dram[5]:    128290    124663    208047    204797    320344    320344      3229      3265     97247     97404    210504    211521     55825     55800     56154     56047 
average row accesses per activate:
dram[0]: 42.250000 84.000000 83.000000 82.500000 60.000000 60.000000 32.000000 32.000000 32.000000 32.000000 32.000000 32.000000 72.000000 72.000000 160.000000 160.000000 
dram[1]: 84.000000 84.000000 83.000000 82.000000 60.000000 60.000000 32.000000 32.000000 32.000000 32.000000 32.000000 32.000000 72.000000 72.000000 160.000000 160.000000 
dram[2]: 84.000000 84.000000 83.000000 82.000000 60.000000 61.000000 32.000000 32.000000 32.000000 32.000000 32.000000 32.000000 72.000000 71.000000 160.000000 160.000000 
dram[3]: 84.000000 84.000000 83.000000 82.000000 60.000000 56.000000 32.000000 32.000000 32.000000 32.000000 32.000000 32.000000 72.000000 80.000000 160.000000 160.000000 
dram[4]: 84.000000 84.000000 83.000000 82.000000 60.000000 56.000000 32.000000 32.000000 32.000000 32.000000 32.000000 32.000000 72.000000 80.000000 160.000000 160.000000 
dram[5]: 83.500000 84.000000 83.000000 82.000000 60.000000 56.000000 32.000000 32.000000 32.000000 32.000000 32.000000 32.000000 72.000000 80.000000 160.000000 160.000000 
average row locality = 9374/134 = 69.955223
number of total memory accesses made:
dram[0]:         0         0         0         0         0         0         0         0         0         0         0         0         0         0         0         0 
dram[1]:         0         0         0         0         0         0         0         0         0         0         0         0         0         0         0         0 
dram[2]:         0         0         0         0         0         0         0         0         0         0         0         0         0         0         0         0 
dram[3]:         0         0         0         0         0         0         0         0         0         0         0         0         0         0         0         0 
dram[4]:         0         0         0         0         0         0         0         0         0         0         0         0         0         0         0         0 
dram[5]:         0         0         0         0         0         0         0         0         0         0         0         0         0         0         0         0 
total accesses: 0
min_bank_accesses = 0!
min_chip_accesses = 0!
number of total read accesses:
dram[0]:        41        40        38        37        32        32        32        32        32        32        32        32        32        32        32        32 
dram[1]:        40        40        38        36        32        32        32        32        32        32        32        32        32        32        32        32 
dram[2]:        40        40        38        36        32        34        32        32        32        32        32        32        32        31        32        32 
dram[3]:        40        40        38        36        32        32        32        32        32        32        32        32        32        32        32        32 
dram[4]:        40        40        38        36        32        32        32        32        32        32        32        32        32        32        32        32 
dram[5]:        39        40        38        36        32        32        32        32        32        32        32        32        32        32        32        32 
total reads: 3230
bank skew: 41/31 = 1.32
chip skew: 540/537 = 1.01
number of total write accesses:
dram[0]:       128       128       128       128        88        88         0         0         0         0         0         0        40        40       128       128 
dram[1]:       128       128       128       128        88        88         0         0         0         0         0         0        40        40       128       128 
dram[2]:       128       128       128       128        88        88         0         0         0         0         0         0        40        40       128       128 
dram[3]:       128       128       128       128        88        80         0         0         0         0         0         0        40        48       128       128 
dram[4]:       128       128       128       128        88        80         0         0         0         0         0         0        40        48       128       128 
dram[5]:       128       128       128       128        88        80         0         0         0         0         0         0        40        48       128       128 
total reads: 6144
min_bank_accesses = 0!
chip skew: 1024/1024 = 1.00
average mf latency per bank:
dram[0]:        770       729       745       725       699       708       344       345       328       341       314       312       729       873       922       904
dram[1]:        749       721       708       738       691       703       285       285       273       274       270       274       823       772       899       871
dram[2]:        762       745       742       745       732       694       353       349       341       328       339       343       788       746       883       835
dram[3]:        726       726       713       706       672       676       278       283       269       274       269       271       714       843       889       901
dram[4]:        729       724       737       738       702       684       354       337       328       335       319       319       725       815       874       899
dram[5]:        745       729       722       727       709       676       281       279       272       270       274       274       729       785       876       879
maximum mf latency per bank:
dram[0]:        425       438       494       409       398       400       338       322       300       328       291       281       570       682       645       748
dram[1]:        432       398       413       446       379       438       360       335       296       319       287       289       660       642       704       595
dram[2]:        415       425       409       433       459       427       318       341       287       278       279       278       671       600       698       615
dram[3]:        409       395       422       429       393       388       321       351       291       294       290       308       589       709       614       673
dram[4]:        411       401       391       428       419       393       395       313       278       296       293       303       578       646       622       632
dram[5]:        429       424       466       424       422       400       337       317       293       289       318       297       627       659       618       598

Number of Memory Banks Accessed per Memory Operation per Warp (from 0):
0	0	0	0	0	0	0	0	0	0	0	0	0	0	0	0	0	0	0	0	0	0	0	0	0	0	0	0	0	0	0	0	0	0	0	0	0	0	0	0	0	0	0	0	0	0	0	0	0	0	0	0	0	0	0	0	0	0	0	0	0	0	0	0	0	0	0	0	0	0	0	0	0	0	0	0	0	0	0	0	0	0	0	0	0	0	0	0	0	0	0	0	0	0	0	0	
Average # of Memory Banks Accessed per Memory Operation per Warp=-nan

position of mrq chosen
0	0	0	0	0	0	0	0	0	0	0	0	0	0	0	0	

average position of mrq chosen = -nan
Memory Partition 0: 
Cache L2_bank_000:
MSHR contents

Cache L2_bank_001:
MSHR contents

In Dram Latency Queue (total = 0): 
DRAM[0]: 16 bks, busW=4 BL=8 CL=12, tRRD=2 tCCD=6, tRCD=12 tRAS=28 tRP=12 tRC=40
n_cmd=479281 n_nop=477145 n_act=24 n_pre=8 n_req=1564 n_rd=1080 n_write=1024 bw_util=0.00878
n_activity=11725 dram_eff=0.3589
bk0: 82a 477785i bk1: 80a 477810i bk2: 76a 477927i bk3: 74a 477940i bk4: 64a 478353i bk5: 64a 478293i bk6: 64a 479032i bk7: 64a 478991i bk8: 64a 479122i bk9: 64a 479090i bk10: 64a 479102i bk11: 64a 479074i bk12: 64a 478745i bk13: 64a 478588i bk14: 64a 477610i bk15: 64a 477619i 
dram_util_bins: 0 0 0 0 0 0 0 0 0 0
dram_eff_bins: 0 0 0 0 0 0 0 0 0 0
mrqq: max=16 avg=0.111494
Memory Partition 1: 
Cache L2_bank_002:
MSHR contents

Cache L2_bank_003:
MSHR contents

In Dram Latency Queue (total = 0): 
DRAM[1]: 16 bks, busW=4 BL=8 CL=12, tRRD=2 tCCD=6, tRCD=12 tRAS=28 tRP=12 tRC=40
n_cmd=479281 n_nop=477153 n_act=22 n_pre=6 n_req=1562 n_rd=1076 n_write=1024 bw_util=0.008763
n_activity=11515 dram_eff=0.3647
bk0: 80a 477867i bk1: 80a 477832i bk2: 76a 477935i bk3: 72a 477927i bk4: 64a 478368i bk5: 64a 478250i bk6: 64a 479008i bk7: 64a 478947i bk8: 64a 479112i bk9: 64a 479112i bk10: 64a 479109i bk11: 64a 479091i bk12: 64a 478650i bk13: 64a 478623i bk14: 64a 477619i bk15: 64a 477607i 
dram_util_bins: 0 0 0 0 0 0 0 0 0 0
dram_eff_bins: 0 0 0 0 0 0 0 0 0 0
mrqq: max=16 avg=0.109769
Memory Partition 2: 
Cache L2_bank_004:
MSHR contents

Cache L2_bank_005:
MSHR contents

In Dram Latency Queue (total = 0): 
DRAM[2]: 16 bks, busW=4 BL=8 CL=12, tRRD=2 tCCD=6, tRCD=12 tRAS=28 tRP=12 tRC=40
n_cmd=479281 n_nop=477151 n_act=22 n_pre=6 n_req=1563 n_rd=1078 n_write=1024 bw_util=0.008771
n_activity=11888 dram_eff=0.3536
bk0: 80a 477885i bk1: 80a 477811i bk2: 76a 478000i bk3: 72a 477961i bk4: 64a 478357i bk5: 68a 478266i bk6: 64a 479042i bk7: 64a 478991i bk8: 64a 479123i bk9: 64a 479099i bk10: 64a 479136i bk11: 64a 479098i bk12: 64a 478620i bk13: 62a 478680i bk14: 64a 477648i bk15: 64a 477639i 
dram_util_bins: 0 0 0 0 0 0 0 0 0 0
dram_eff_bins: 0 0 0 0 0 0 0 0 0 0
mrqq: max=16 avg=0.11579
Memory Partition 3: 
Cache L2_bank_006:
MSHR contents

Cache L2_bank_007:
MSHR contents

In Dram Latency Queue (total = 0): 
DRAM[3]: 16 bks, busW=4 BL=8 CL=12, tRRD=2 tCCD=6, tRCD=12 tRAS=28 tRP=12 tRC=40
n_cmd=479281 n_nop=477153 n_act=22 n_pre=6 n_req=1562 n_rd=1076 n_write=1024 bw_util=0.008763
n_activity=11573 dram_eff=0.3629
bk0: 80a 477887i bk1: 80a 477872i bk2: 76a 477949i bk3: 72a 477839i bk4: 64a 478304i bk5: 64a 478287i bk6: 64a 479052i bk7: 64a 478983i bk8: 64a 479112i bk9: 64a 479080i bk10: 64a 479115i bk11: 64a 479097i bk12: 64a 478596i bk13: 64a 478458i bk14: 64a 477623i bk15: 64a 477614i 
dram_util_bins: 0 0 0 0 0 0 0 0 0 0
dram_eff_bins: 0 0 0 0 0 0 0 0 0 0
mrqq: max=16 avg=0.11124
Memory Partition 4: 
Cache L2_bank_008:
MSHR contents

Cache L2_bank_009:
MSHR contents

In Dram Latency Queue (total = 0): 
DRAM[4]: 16 bks, busW=4 BL=8 CL=12, tRRD=2 tCCD=6, tRCD=12 tRAS=28 tRP=12 tRC=40
n_cmd=479281 n_nop=477153 n_act=22 n_pre=6 n_req=1562 n_rd=1076 n_write=1024 bw_util=0.008763
n_activity=11725 dram_eff=0.3582
bk0: 80a 477920i bk1: 80a 477885i bk2: 76a 477904i bk3: 72a 477846i bk4: 64a 478321i bk5: 64a 478347i bk6: 64a 479051i bk7: 64a 479074i bk8: 64a 479120i bk9: 64a 479089i bk10: 64a 479113i bk11: 64a 479092i bk12: 64a 478619i bk13: 64a 478489i bk14: 64a 477615i bk15: 64a 477620i 
dram_util_bins: 0 0 0 0 0 0 0 0 0 0
dram_eff_bins: 0 0 0 0 0 0 0 0 0 0
mrqq: max=16 avg=0.108765
Memory Partition 5: 
Cache L2_bank_010:
MSHR contents

Cache L2_bank_011:
MSHR contents

In Dram Latency Queue (total = 0): 
DRAM[5]: 16 bks, busW=4 BL=8 CL=12, tRRD=2 tCCD=6, tRCD=12 tRAS=28 tRP=12 tRC=40
n_cmd=479281 n_nop=477155 n_act=22 n_pre=6 n_req=1561 n_rd=1074 n_write=1024 bw_util=0.008755
n_activity=11162 dram_eff=0.3759
bk0: 78a 477884i bk1: 80a 477861i bk2: 76a 477988i bk3: 72a 477918i bk4: 64a 478331i bk5: 64a 478284i bk6: 64a 479018i bk7: 64a 479017i bk8: 64a 479107i bk9: 64a 479094i bk10: 64a 479096i bk11: 64a 479098i bk12: 64a 478576i bk13: 64a 478475i bk14: 64a 477558i bk15: 64a 477495i 
dram_util_bins: 0 0 0 0 0 0 0 0 0 0
dram_eff_bins: 0 0 0 0 0 0 0 0 0 0
mrqq: max=16 avg=0.11974

========= L2 cache stats =========
L2_cache_bank[0]: Access = 4062, Miss = 271, Miss_rate = 0.067, Pending_hits = 430, Reservation_fails = 1660
L2_cache_bank[1]: Access = 3919, Miss = 269, Miss_rate = 0.069, Pending_hits = 424, Reservation_fails = 1446
L2_cache_bank[2]: Access = 3996, Miss = 270, Miss_rate = 0.068, Pending_hits = 426, Reservation_fails = 1366
L2_cache_bank[3]: Access = 3736, Miss = 268, Miss_rate = 0.072, Pending_hits = 420, Reservation_fails = 1201
L2_cache_bank[4]: Access = 4060, Miss = 270, Miss_rate = 0.067, Pending_hits = 429, Reservation_fails = 1413
L2_cache_bank[5]: Access = 3797, Miss = 269, Miss_rate = 0.071, Pending_hits = 426, Reservation_fails = 1101
L2_cache_bank[6]: Access = 3996, Miss = 270, Miss_rate = 0.068, Pending_hits = 426, Reservation_fails = 1460
L2_cache_bank[7]: Access = 3736, Miss = 268, Miss_rate = 0.072, Pending_hits = 420, Reservation_fails = 1258
L2_cache_bank[8]: Access = 4048, Miss = 270, Miss_rate = 0.067, Pending_hits = 429, Reservation_fails = 1318
L2_cache_bank[9]: Access = 3790, Miss = 268, Miss_rate = 0.071, Pending_hits = 420, Reservation_fails = 1367
L2_cache_bank[10]: Access = 3866, Miss = 269, Miss_rate = 0.070, Pending_hits = 423, Reservation_fails = 1342
L2_cache_bank[11]: Access = 3736, Miss = 268, Miss_rate = 0.072, Pending_hits = 420, Reservation_fails = 1155
L2_total_cache_accesses = 46742
L2_total_cache_misses = 3230
L2_total_cache_miss_rate = 0.0691
L2_total_cache_pending_hits = 5093
L2_total_cache_reservation_fails = 16087
L2_total_cache_breakdown:
	L2_cache_stats_breakdown[GLOBAL_ACC_R][HIT] = 320
	L2_cache_stats_breakdown[GLOBAL_ACC_R][HIT_RESERVED] = 14
	L2_cache_stats_breakdown[GLOBAL_ACC_R][MISS] = 1537
	L2_cache_stats_breakdown[CONST_ACC_R][HIT] = 11
	L2_cache_stats_breakdown[CONST_ACC_R][HIT_RESERVED] = 3
	L2_cache_stats_breakdown[CONST_ACC_R][MISS] = 1
	L2_cache_stats_breakdown[CONST_ACC_R][RESERVATION_FAIL] = 109
	L2_cache_stats_breakdown[GLOBAL_ACC_W][HIT] = 18432
	L2_cache_stats_breakdown[GLOBAL_ACC_W][HIT_RESERVED] = 4608
	L2_cache_stats_breakdown[GLOBAL_ACC_W][MISS] = 1536
	L2_cache_stats_breakdown[GLOBAL_ACC_W][RESERVATION_FAIL] = 1616
	L2_cache_stats_breakdown[INST_ACC_R][HIT] = 19656
	L2_cache_stats_breakdown[INST_ACC_R][HIT_RESERVED] = 468
	L2_cache_stats_breakdown[INST_ACC_R][MISS] = 156
	L2_cache_stats_breakdown[INST_ACC_R][RESERVATION_FAIL] = 14362
L2_cache_data_port_util = 0.023
L2_cache_fill_port_util = 0.003

icnt_total_pkts_mem_to_simt=135376
icnt_total_pkts_simt_to_mem=71318
LD_mem_lat_dist  0 0 0 0 0 0 0 0 0 0 0 0 0 0 0 0 0 0 0 0 0 0 0 0 0 0 0
ST_mem_lat_dist  0 0 0 0 0 0 0 0 0 0 0 0 0 0 0 0 0 0 0 0 0 0 0 0 0 0 0
----------------------------Interconnect-DETAILS--------------------------------
Class 0:
Packet latency average = 17.3872
	minimum = 6
	maximum = 277
Network latency average = 12.5462
	minimum = 6
	maximum = 239
Slowest packet = 6082
Flit latency average = 10.4717
	minimum = 6
	maximum = 238
Slowest flit = 17225
Fragmentation average = 0
	minimum = 0
	maximum = 0
Injected packet rate average = 0.00953579
	minimum = 0.00799797 (at node 0)
	maximum = 0.0111872 (at node 15)
Accepted packet rate average = 0.00953579
	minimum = 0.00799797 (at node 0)
	maximum = 0.0111872 (at node 15)
Injected flit rate average = 0.0210837
	minimum = 0.0122283 (at node 0)
	maximum = 0.0333469 (at node 19)
Accepted flit rate average= 0.0210837
	minimum = 0.0159298 (at node 18)
	maximum = 0.0259466 (at node 6)
Injected packet length average = 2.21101
Accepted packet length average = 2.21101
Total in-flight flits = 0 (0 measured)
====== Overall Traffic Statistics ======
====== Traffic class 0 ======
Packet latency average = 17.3872 (1 samples)
	minimum = 6 (1 samples)
	maximum = 277 (1 samples)
Network latency average = 12.5462 (1 samples)
	minimum = 6 (1 samples)
	maximum = 239 (1 samples)
Flit latency average = 10.4717 (1 samples)
	minimum = 6 (1 samples)
	maximum = 238 (1 samples)
Fragmentation average = 0 (1 samples)
	minimum = 0 (1 samples)
	maximum = 0 (1 samples)
Injected packet rate average = 0.00953579 (1 samples)
	minimum = 0.00799797 (1 samples)
	maximum = 0.0111872 (1 samples)
Accepted packet rate average = 0.00953579 (1 samples)
	minimum = 0.00799797 (1 samples)
	maximum = 0.0111872 (1 samples)
Injected flit rate average = 0.0210837 (1 samples)
	minimum = 0.0122283 (1 samples)
	maximum = 0.0333469 (1 samples)
Accepted flit rate average = 0.0210837 (1 samples)
	minimum = 0.0159298 (1 samples)
	maximum = 0.0259466 (1 samples)
Injected packet size average = 2.21101 (1 samples)
Accepted packet size average = 2.21101 (1 samples)
Hops average = 1 (1 samples)
----------------------------END-of-Interconnect-DETAILS-------------------------


gpgpu_simulation_time = 0 days, 0 hrs, 6 min, 21 sec (381 sec)
gpgpu_simulation_rate = 330002 (inst/sec)
gpgpu_simulation_rate = 952 (cycle/sec)
GPGPU-Sim: synchronize waiting for inactive GPU simulation
GPGPU-Sim API: Stream Manager State
GPGPU-Sim: detected inactive GPU simulation thread

== GPU Timing ==
GPU init                 : 0.011000
Host input buffer alloc  : 0.014000
-----
Host output buffer alloc : 0.004000
GPU memory alloc         : 0.003000
Data copy in             : 7.292000
Kernel execution         : 379958.093750
Data copy out            : 6.678000
Last hasing stage        : 0.000000
GPU Proc. Time (gpu init and input alloc are not included):  379972.062500 

== CPU Execution Context ==
Threads       : 128
Blocks        : 384
Total Threads : 49152
Total Size    : 196656
Chunk Size    : 52
Padding       : 0

CPU Processing time(ms):    20.794001 

Output size: 196608
Test PASSED
CPU GPU
FD FD
DD DD
2 2
F9 F9
