

        *** GPGPU-Sim Simulator Version 3.2.2  [build 0] ***


GPGPU-Sim PTX: simulation mode 0 (can change with PTX_SIM_MODE_FUNC environment variable:
               1=functional simulation only, 0=detailed performance simulator)
GPGPU-Sim: Configuration options:

-network_mode                           1 # Interconnection network mode
-inter_config_file   config_fermi_islip.icnt # Interconnection network config file
-gpgpu_ptx_use_cuobjdump                    1 # Use cuobjdump to extract ptx and sass from binaries
-gpgpu_experimental_lib_support                    0 # Try to extract code from cuda libraries [Broken because of unknown cudaGetExportTable]
-gpgpu_ptx_convert_to_ptxplus                    0 # Convert SASS (native ISA) to ptxplus and run ptxplus
-gpgpu_ptx_force_max_capability                   20 # Force maximum compute capability
-gpgpu_ptx_inst_debug_to_file                    0 # Dump executed instructions' debug information to file
-gpgpu_ptx_inst_debug_file       inst_debug.txt # Executed instructions' debug output file
-gpgpu_ptx_inst_debug_thread_uid                    1 # Thread UID for executed instructions' debug output
-gpgpu_simd_model                       1 # 1 = post-dominator
-gpgpu_shader_core_pipeline              1536:32 # shader core pipeline config, i.e., {<nthread>:<warpsize>}
-gpgpu_tex_cache:l1  4:128:24,L:R:m:N:L,F:128:4,128:2 # per-shader L1 texture cache  (READ-ONLY) config  {<nsets>:<bsize>:<assoc>,<rep>:<wr>:<alloc>:<wr_alloc>,<mshr>:<N>:<merge>,<mq>:<rf>}
-gpgpu_const_cache:l1 64:64:2,L:R:f:N:L,A:2:32,4 # per-shader L1 constant memory cache  (READ-ONLY) config  {<nsets>:<bsize>:<assoc>,<rep>:<wr>:<alloc>:<wr_alloc>,<mshr>:<N>:<merge>,<mq>} 
-gpgpu_cache:il1     4:128:4,L:R:f:N:L,A:2:32,4 # shader L1 instruction cache config  {<nsets>:<bsize>:<assoc>,<rep>:<wr>:<alloc>:<wr_alloc>,<mshr>:<N>:<merge>,<mq>} 
-gpgpu_cache:dl1     64:128:4,L:L:m:N:H,A:32:8,8 # per-shader L1 data cache config  {<nsets>:<bsize>:<assoc>,<rep>:<wr>:<alloc>:<wr_alloc>,<mshr>:<N>:<merge>,<mq> | none}
-gpgpu_cache:dl1PrefL1                 none # per-shader L1 data cache config  {<nsets>:<bsize>:<assoc>,<rep>:<wr>:<alloc>:<wr_alloc>,<mshr>:<N>:<merge>,<mq> | none}
-gpgpu_cache:dl1PreShared                 none # per-shader L1 data cache config  {<nsets>:<bsize>:<assoc>,<rep>:<wr>:<alloc>:<wr_alloc>,<mshr>:<N>:<merge>,<mq> | none}
-gmem_skip_L1D                          0 # global memory access skip L1D cache (implements -Xptxas -dlcm=cg, default=no skip)
-gpgpu_perfect_mem                      0 # enable perfect memory mode (no cache miss)
-n_regfile_gating_group                    4 # group of lanes that should be read/written together)
-gpgpu_clock_gated_reg_file                    0 # enable clock gated reg file for power calculations
-gpgpu_clock_gated_lanes                    0 # enable clock gated lanes for power calculations
-gpgpu_shader_registers                32768 # Number of registers per shader core. Limits number of concurrent CTAs. (default 8192)
-gpgpu_shader_cta                       8 # Maximum number of concurrent CTAs in shader (default 8)
-gpgpu_num_cta_barriers                   16 # Maximum number of named barriers per CTA (default 16)
-gpgpu_n_clusters                      15 # number of processing clusters
-gpgpu_n_cores_per_cluster                    1 # number of simd cores per cluster
-gpgpu_n_cluster_ejection_buffer_size                    8 # number of packets in ejection buffer
-gpgpu_n_ldst_response_buffer_size                    2 # number of response packets in ld/st unit ejection buffer
-gpgpu_shmem_size                   16384 # Size of shared memory per shader core (default 16kB)
-gpgpu_shmem_size                   49152 # Size of shared memory per shader core (default 16kB)
-gpgpu_shmem_size_PrefL1                16384 # Size of shared memory per shader core (default 16kB)
-gpgpu_shmem_size_PrefShared                16384 # Size of shared memory per shader core (default 16kB)
-gpgpu_shmem_num_banks                   32 # Number of banks in the shared memory in each shader core (default 16)
-gpgpu_shmem_limited_broadcast                    0 # Limit shared memory to do one broadcast per cycle (default on)
-gpgpu_shmem_warp_parts                    1 # Number of portions a warp is divided into for shared memory bank conflict check 
-gpgpu_warpdistro_shader                   -1 # Specify which shader core to collect the warp size distribution from
-gpgpu_warp_issue_shader                    0 # Specify which shader core to collect the warp issue distribution from
-gpgpu_local_mem_map                    1 # Mapping from local memory space address to simulated GPU physical address space (default = enabled)
-gpgpu_num_reg_banks                   16 # Number of register banks (default = 8)
-gpgpu_reg_bank_use_warp_id                    0 # Use warp ID in mapping registers to banks (default = off)
-gpgpu_operand_collector_num_units_sp                    6 # number of collector units (default = 4)
-gpgpu_operand_collector_num_units_sfu                    8 # number of collector units (default = 4)
-gpgpu_operand_collector_num_units_mem                    2 # number of collector units (default = 2)
-gpgpu_operand_collector_num_units_gen                    0 # number of collector units (default = 0)
-gpgpu_operand_collector_num_in_ports_sp                    2 # number of collector unit in ports (default = 1)
-gpgpu_operand_collector_num_in_ports_sfu                    1 # number of collector unit in ports (default = 1)
-gpgpu_operand_collector_num_in_ports_mem                    1 # number of collector unit in ports (default = 1)
-gpgpu_operand_collector_num_in_ports_gen                    0 # number of collector unit in ports (default = 0)
-gpgpu_operand_collector_num_out_ports_sp                    2 # number of collector unit in ports (default = 1)
-gpgpu_operand_collector_num_out_ports_sfu                    1 # number of collector unit in ports (default = 1)
-gpgpu_operand_collector_num_out_ports_mem                    1 # number of collector unit in ports (default = 1)
-gpgpu_operand_collector_num_out_ports_gen                    0 # number of collector unit in ports (default = 0)
-gpgpu_coalesce_arch                   13 # Coalescing arch (default = 13, anything else is off for now)
-gpgpu_num_sched_per_core                    2 # Number of warp schedulers per core
-gpgpu_max_insn_issue_per_warp                    1 # Max number of instructions that can be issued per warp in one cycle by scheduler
-gpgpu_simt_core_sim_order                    1 # Select the simulation order of cores in a cluster (0=Fix, 1=Round-Robin)
-gpgpu_pipeline_widths        2,1,1,2,1,1,2 # Pipeline widths ID_OC_SP,ID_OC_SFU,ID_OC_MEM,OC_EX_SP,OC_EX_SFU,OC_EX_MEM,EX_WB
-gpgpu_num_sp_units                     2 # Number of SP units (default=1)
-gpgpu_num_sfu_units                    1 # Number of SF units (default=1)
-gpgpu_num_mem_units                    1 # Number if ldst units (default=1) WARNING: not hooked up to anything
-gpgpu_scheduler                      gto # Scheduler configuration: < lrr | gto | two_level_active > If two_level_active:<num_active_warps>:<inner_prioritization>:<outer_prioritization>For complete list of prioritization values see shader.h enum scheduler_prioritization_typeDefault: gto
-gpgpu_dram_scheduler                    1 # 0 = fifo, 1 = FR-FCFS (defaul)
-gpgpu_dram_partition_queues              8:8:8:8 # i2$:$2d:d2$:$2i
-l2_ideal                               0 # Use a ideal L2 cache that always hit
-gpgpu_cache:dl2     64:128:8,L:B:m:W:L,A:32:4,4:0,32 # unified banked L2 data cache config  {<nsets>:<bsize>:<assoc>,<rep>:<wr>:<alloc>:<wr_alloc>,<mshr>:<N>:<merge>,<mq>}
-gpgpu_cache:dl2_texture_only                    0 # L2 cache used for texture only
-gpgpu_n_mem                            6 # number of memory modules (e.g. memory controllers) in gpu
-gpgpu_n_sub_partition_per_mchannel                    2 # number of memory subpartition in each memory module
-gpgpu_n_mem_per_ctrlr                    2 # number of memory chips per memory controller
-gpgpu_memlatency_stat                   14 # track and display latency statistics 0x2 enables MC, 0x4 enables queue logs
-gpgpu_frfcfs_dram_sched_queue_size                   16 # 0 = unlimited (default); # entries per chip
-gpgpu_dram_return_queue_size                  116 # 0 = unlimited (default); # entries per chip
-gpgpu_dram_buswidth                    4 # default = 4 bytes (8 bytes per cycle at DDR)
-gpgpu_dram_burst_length                    8 # Burst length of each DRAM request (default = 4 data bus cycle)
-dram_data_command_freq_ratio                    4 # Frequency ratio between DRAM data bus and command bus (default = 2 times, i.e. DDR)
-gpgpu_dram_timing_opt nbk=16:CCD=2:RRD=6:RCD=12:RAS=28:RP=12:RC=40: CL=12:WL=4:CDLR=5:WR=12:nbkgrp=4:CCDL=3:RTPL=2 # DRAM timing parameters = {nbk:tCCD:tRRD:tRCD:tRAS:tRP:tRC:CL:WL:tCDLR:tWR:nbkgrp:tCCDL:tRTPL}
-rop_latency                          120 # ROP queue latency (default 85)
-dram_latency                         100 # DRAM latency (default 30)
-gpgpu_mem_addr_mapping dramid@8;00000000.00000000.00000000.00000000.0000RRRR.RRRRRRRR.BBBCCCCB.CCSSSSSS # mapping memory address to dram model {dramid@<start bit>;<memory address map>}
-gpgpu_mem_addr_test                    0 # run sweep test to check address mapping for aliased address
-gpgpu_mem_address_mask                    1 # 0 = old addressing mask, 1 = new addressing mask, 2 = new add. mask + flipped bank sel and chip sel bits
-gpuwattch_xml_file  gpuwattch_gtx480.xml # GPUWattch XML file
-power_simulation_enabled                    1 # Turn on power simulator (1=On, 0=Off)
-power_per_cycle_dump                    0 # Dump detailed power output each cycle
-power_trace_enabled                    0 # produce a file for the power trace (1=On, 0=Off)
-power_trace_zlevel                     6 # Compression level of the power trace output log (0=no comp, 9=highest)
-steady_power_levels_enabled                    0 # produce a file for the steady power levels (1=On, 0=Off)
-steady_state_definition                  8:4 # allowed deviation:number of samples
-gpgpu_max_cycle                        0 # terminates gpu simulation early (0 = no limit)
-gpgpu_max_insn                         0 # terminates gpu simulation early (0 = no limit)
-gpgpu_max_cta                          0 # terminates gpu simulation early (0 = no limit)
-gpgpu_runtime_stat                   500 # display runtime statistics such as dram utilization {<freq>:<flag>}
-liveness_message_freq                    1 # Minimum number of seconds between simulation liveness messages (0 = always print)
-gpgpu_flush_l1_cache                    0 # Flush L1 cache at the end of each kernel call
-gpgpu_flush_l2_cache                    0 # Flush L2 cache at the end of each kernel call
-gpgpu_deadlock_detect                    1 # Stop the simulation at deadlock (1=on (default), 0=off)
-gpgpu_ptx_instruction_classification                    0 # if enabled will classify ptx instruction types per kernel (Max 255 kernels now)
-gpgpu_ptx_sim_mode                     0 # Select between Performance (default) or Functional simulation (1)
-gpgpu_clock_domains 700.0:700.0:700.0:924.0 # Clock Domain Frequencies in MhZ {<Core Clock>:<ICNT Clock>:<L2 Clock>:<DRAM Clock>}
-gpgpu_max_concurrent_kernel                    8 # maximum kernels that can run concurrently on GPU
-gpgpu_cflog_interval                    0 # Interval between each snapshot in control flow logger
-visualizer_enabled                     0 # Turn on visualizer output (1=On, 0=Off)
-visualizer_outputfile                 NULL # Specifies the output log file for visualizer
-visualizer_zlevel                      6 # Compression level of the visualizer output log (0=no comp, 9=highest)
-trace_enabled                          0 # Turn on traces
-trace_components                    none # comma seperated list of traces to enable. Complete list found in trace_streams.tup. Default none
-trace_sampling_core                    0 # The core which is printed using CORE_DPRINTF. Default 0
-trace_sampling_memory_partition                   -1 # The memory partition which is printed using MEMPART_DPRINTF. Default -1 (i.e. all)
-enable_ptx_file_line_stats                    1 # Turn on PTX source line statistic profiling. (1 = On)
-ptx_line_stats_filename gpgpu_inst_stats.txt # Output file for PTX source line statistics.
-save_embedded_ptx                      0 # saves ptx files embedded in binary as <n>.ptx
-keep                                   0 # keep intermediate files created by GPGPU-Sim when interfacing with external programs
-gpgpu_ptx_save_converted_ptxplus                    0 # Saved converted ptxplus to a file
-ptx_opcode_latency_int         4,13,4,5,145 # Opcode latencies for integers <ADD,MAX,MUL,MAD,DIV>Default 1,1,19,25,145
-ptx_opcode_latency_fp          4,13,4,5,39 # Opcode latencies for single precision floating points <ADD,MAX,MUL,MAD,DIV>Default 1,1,1,1,30
-ptx_opcode_latency_dp         8,19,8,8,330 # Opcode latencies for double precision floating points <ADD,MAX,MUL,MAD,DIV>Default 8,8,8,8,335
-ptx_opcode_initiation_int            1,2,2,1,8 # Opcode initiation intervals for integers <ADD,MAX,MUL,MAD,DIV>Default 1,1,4,4,32
-ptx_opcode_initiation_fp            1,2,1,1,4 # Opcode initiation intervals for single precision floating points <ADD,MAX,MUL,MAD,DIV>Default 1,1,1,1,5
-ptx_opcode_initiation_dp         8,16,8,8,130 # Opcode initiation intervals for double precision floating points <ADD,MAX,MUL,MAD,DIV>Default 8,8,8,8,130
DRAM Timing Options:
nbk                                    16 # number of banks
CCD                                     2 # column to column delay
RRD                                     6 # minimal delay between activation of rows in different banks
RCD                                    12 # row to column delay
RAS                                    28 # time needed to activate row
RP                                     12 # time needed to precharge (deactivate) row
RC                                     40 # row cycle time
CDLR                                    5 # switching from write to read (changes tWTR)
WR                                     12 # last data-in to row precharge
CL                                     12 # CAS latency
WL                                      4 # Write latency
nbkgrp                                  4 # number of bank groups
CCDL                                    3 # column to column delay between accesses to different bank groups
RTPL                                    2 # read to precharge delay between accesses to different bank groups
Total number of memory sub partition = 12
addr_dec_mask[CHIP]  = 0000000000000000 	high:64 low:0
addr_dec_mask[BK]    = 000000000000e100 	high:16 low:8
addr_dec_mask[ROW]   = 000000000fff0000 	high:28 low:16
addr_dec_mask[COL]   = 0000000000001eff 	high:13 low:0
addr_dec_mask[BURST] = 000000000000003f 	high:6 low:0
sub_partition_id_mask = 0000000000000100
GPGPU-Sim uArch: clock freqs: 700000000.000000:700000000.000000:700000000.000000:924000000.000000
GPGPU-Sim uArch: clock periods: 0.00000000142857142857:0.00000000142857142857:0.00000000142857142857:0.00000000108225108225
*** Initializing Memory Statistics ***
GPGPU-Sim uArch: interconnect node map (shaderID+MemID to icntID)
GPGPU-Sim uArch: Memory nodes ID start from index: 15
GPGPU-Sim uArch:    0   1   2   3   4
GPGPU-Sim uArch:    5   6   7   8   9
GPGPU-Sim uArch:   10  11  12  13  14
GPGPU-Sim uArch:   15  16  17  18  19
GPGPU-Sim uArch:   20  21  22  23  24
GPGPU-Sim uArch:   25  26
GPGPU-Sim uArch: interconnect node reverse map (icntID to shaderID+MemID)
GPGPU-Sim uArch: Memory nodes start from ID: 15
GPGPU-Sim uArch:    0   1   2   3   4
GPGPU-Sim uArch:    5   6   7   8   9
GPGPU-Sim uArch:   10  11  12  13  14
GPGPU-Sim uArch:   15  16  17  18  19
GPGPU-Sim uArch:   20  21  22  23  24
GPGPU-Sim uArch:   25  26
20268b35c91b7ed3425c558353ee2ace  /home/scratch/adwait/applications/benchmarks/CUDA/TRA/gpgpu_ptx_sim__TRA
GPGPU-Sim uArch: performance model initialization complete.
GPGPU-Sim PTX: __cudaRegisterFatBinary, fat_cubin_handle = 1, filename=transpose.cu
self exe links to: /home/scratch/adwait/applications/benchmarks/CUDA/TRA/gpgpu_ptx_sim__TRA
Running md5sum using "md5sum /home/scratch/adwait/applications/benchmarks/CUDA/TRA/gpgpu_ptx_sim__TRA "
Running cuobjdump using "$CUDA_INSTALL_PATH/bin/cuobjdump -ptx -elf -sass /home/scratch/adwait/applications/benchmarks/CUDA/TRA/gpgpu_ptx_sim__TRA > _cuobjdump_complete_output_8W8hcC"
Parsing file _cuobjdump_complete_output_8W8hcC
######### cuobjdump parser ########
## Adding new section ELF
Adding arch: sm_20
Adding identifier: transpose.cu
## Adding new section PTX
Adding ptx filename: _cuobjdump_1.ptx
Adding arch: sm_20
Adding identifier: transpose.cu
Done parsing!!!
GPGPU-Sim PTX: __cudaRegisterFunction _Z15transpose_naivePfS_ii : hostFun 0x0x4048d7, fat_cubin_handle = 1
GPGPU-Sim PTX: allocating shared region for "__cuda___cuda_local_var_42723_32_non_const_block24" from 0x0 to 0x440 (shared memory space)
GPGPU-Sim PTX: instruction assembly for function '_Z9transposePfS_ii'...   done.
GPGPU-Sim PTX: finding reconvergence points for '_Z9transposePfS_ii'...
GPGPU-Sim PTX: Finding dominators for '_Z9transposePfS_ii'...
GPGPU-Sim PTX: Finding immediate dominators for '_Z9transposePfS_ii'...
GPGPU-Sim PTX: Finding postdominators for '_Z9transposePfS_ii'...
GPGPU-Sim PTX: Finding immediate postdominators for '_Z9transposePfS_ii'...
GPGPU-Sim PTX: pre-decoding instructions for '_Z9transposePfS_ii'...
GPGPU-Sim PTX: reconvergence points for _Z9transposePfS_ii...
GPGPU-Sim PTX:  1 (potential) branch divergence @  PC=0x088 (_1.ptx:81) @%p1 bra $Lt_0_2306;
GPGPU-Sim PTX:    immediate post dominator      @  PC=0x108 (_1.ptx:99) mov.u64 %rd1, __cuda___cuda_local_var_42723_32_non_const_block24;
GPGPU-Sim PTX:  2 (potential) branch divergence @  PC=0x160 (_1.ptx:111) @%p2 bra $Lt_0_2818;
GPGPU-Sim PTX:    immediate post dominator      @  PC=0x1d8 (_1.ptx:129) exit;
GPGPU-Sim PTX: ... end of reconvergence points for _Z9transposePfS_ii
GPGPU-Sim PTX: ... done pre-decoding instructions for '_Z9transposePfS_ii'.
GPGPU-Sim PTX: instruction assembly for function '_Z15transpose_naivePfS_ii'...   done.
GPGPU-Sim PTX: finding reconvergence points for '_Z15transpose_naivePfS_ii'...
GPGPU-Sim PTX: Finding dominators for '_Z15transpose_naivePfS_ii'...
GPGPU-Sim PTX: Finding immediate dominators for '_Z15transpose_naivePfS_ii'...
GPGPU-Sim PTX: Finding postdominators for '_Z15transpose_naivePfS_ii'...
GPGPU-Sim PTX: Finding immediate postdominators for '_Z15transpose_naivePfS_ii'...
GPGPU-Sim PTX: pre-decoding instructions for '_Z15transpose_naivePfS_ii'...
GPGPU-Sim PTX: reconvergence points for _Z15transpose_naivePfS_ii...
GPGPU-Sim PTX:  1 (potential) branch divergence @  PC=0x278 (_1.ptx:164) @%p1 bra $Lt_1_1282;
GPGPU-Sim PTX:    immediate post dominator      @  PC=0x2f0 (_1.ptx:182) exit;
GPGPU-Sim PTX: ... end of reconvergence points for _Z15transpose_naivePfS_ii
GPGPU-Sim PTX: ... done pre-decoding instructions for '_Z15transpose_naivePfS_ii'.
GPGPU-Sim PTX: finished parsing EMBEDDED .ptx file _1.ptx
Adding _cuobjdump_1.ptx with cubin handle 1
GPGPU-Sim PTX: extracting embedded .ptx to temporary file "_ptx_OyZA3o"
Running: cat _ptx_OyZA3o | sed 's/.version 1.5/.version 1.4/' | sed 's/, texmode_independent//' | sed 's/\(\.extern \.const\[1\] .b8 \w\+\)\[\]/\1\[1\]/' | sed 's/const\[.\]/const\[0\]/g' > _ptx2_eE89Ub
GPGPU-Sim PTX: generating ptxinfo using "$CUDA_INSTALL_PATH/bin/ptxas --gpu-name=sm_20 -v _ptx2_eE89Ub --output-file  /dev/null 2> _ptx_OyZA3oinfo"
GPGPU-Sim PTX: Kernel '_Z15transpose_naivePfS_ii' : regs=8, lmem=0, smem=0, cmem=56
GPGPU-Sim PTX: Kernel '_Z9transposePfS_ii' : regs=9, lmem=0, smem=1088, cmem=56
GPGPU-Sim PTX: removing ptxinfo using "rm -f _ptx_OyZA3o _ptx2_eE89Ub _ptx_OyZA3oinfo"
GPGPU-Sim PTX: loading globals with explicit initializers... 
GPGPU-Sim PTX: finished loading globals (0 bytes total).
GPGPU-Sim PTX: loading constants with explicit initializers...  done.
GPGPU-Sim PTX: __cudaRegisterFunction _Z9transposePfS_ii : hostFun 0x0x4047e7, fat_cubin_handle = 1

GPGPU-Sim PTX: cudaLaunch for 0x0x4048d7 (mode=performance simulation) on stream 0
GPGPU-Sim PTX: pushing kernel '_Z15transpose_naivePfS_ii' to stream 0, gridDim= (16,256,1) blockDim = (16,16,1) 
kernel '_Z15transpose_naivePfS_ii' transfer to GPU hardware scheduler
GPGPU-Sim uArch: Shader 1 bind to kernel 1 '_Z15transpose_naivePfS_ii'
GPGPU-Sim uArch: CTA/core = 6, limited by: threads
GPGPU-Sim uArch: core:  1, cta: 0 initialized @(1,0)
GPGPU-Sim uArch: Shader 2 bind to kernel 1 '_Z15transpose_naivePfS_ii'
GPGPU-Sim uArch: core:  2, cta: 0 initialized @(1,0)
GPGPU-Sim uArch: Shader 3 bind to kernel 1 '_Z15transpose_naivePfS_ii'
GPGPU-Sim uArch: core:  3, cta: 0 initialized @(1,0)
GPGPU-Sim uArch: Shader 4 bind to kernel 1 '_Z15transpose_naivePfS_ii'
GPGPU-Sim uArch: core:  4, cta: 0 initialized @(1,0)
GPGPU-Sim uArch: Shader 5 bind to kernel 1 '_Z15transpose_naivePfS_ii'
GPGPU-Sim uArch: core:  5, cta: 0 initialized @(1,0)
GPGPU-Sim uArch: Shader 6 bind to kernel 1 '_Z15transpose_naivePfS_ii'
GPGPU-Sim uArch: core:  6, cta: 0 initialized @(1,0)
GPGPU-Sim uArch: Shader 7 bind to kernel 1 '_Z15transpose_naivePfS_ii'
GPGPU-Sim uArch: core:  7, cta: 0 initialized @(1,0)
GPGPU-Sim uArch: Shader 8 bind to kernel 1 '_Z15transpose_naivePfS_ii'
GPGPU-Sim uArch: core:  8, cta: 0 initialized @(1,0)
GPGPU-Sim uArch: Shader 9 bind to kernel 1 '_Z15transpose_naivePfS_ii'
GPGPU-Sim uArch: core:  9, cta: 0 initialized @(1,0)
GPGPU-Sim uArch: Shader 10 bind to kernel 1 '_Z15transpose_naivePfS_ii'
GPGPU-Sim uArch: core: 10, cta: 0 initialized @(1,0)
GPGPU-Sim uArch: Shader 11 bind to kernel 1 '_Z15transpose_naivePfS_ii'
GPGPU-Sim uArch: core: 11, cta: 0 initialized @(1,0)
GPGPU-Sim uArch: Shader 12 bind to kernel 1 '_Z15transpose_naivePfS_ii'
GPGPU-Sim uArch: core: 12, cta: 0 initialized @(1,0)
GPGPU-Sim uArch: Shader 13 bind to kernel 1 '_Z15transpose_naivePfS_ii'
GPGPU-Sim uArch: core: 13, cta: 0 initialized @(1,0)
GPGPU-Sim uArch: Shader 14 bind to kernel 1 '_Z15transpose_naivePfS_ii'
GPGPU-Sim uArch: core: 14, cta: 0 initialized @(1,0)
GPGPU-Sim uArch: Shader 0 bind to kernel 1 '_Z15transpose_naivePfS_ii'
GPGPU-Sim uArch: core:  0, cta: 0 initialized @(1,0)
GPGPU-Sim uArch: core:  1, cta: 1 initialized @(2,0)
GPGPU-Sim uArch: core:  2, cta: 1 initialized @(2,0)
GPGPU-Sim uArch: core:  3, cta: 1 initialized @(2,0)
GPGPU-Sim uArch: core:  4, cta: 1 initialized @(2,0)
GPGPU-Sim uArch: core:  5, cta: 1 initialized @(2,0)
GPGPU-Sim uArch: core:  6, cta: 1 initialized @(2,0)
GPGPU-Sim uArch: core:  7, cta: 1 initialized @(2,0)
GPGPU-Sim uArch: core:  8, cta: 1 initialized @(2,0)
GPGPU-Sim uArch: core:  9, cta: 1 initialized @(2,0)
GPGPU-Sim uArch: core: 10, cta: 1 initialized @(2,0)
GPGPU-Sim uArch: core: 11, cta: 1 initialized @(2,0)
GPGPU-Sim uArch: core: 12, cta: 1 initialized @(2,0)
GPGPU-Sim uArch: core: 13, cta: 1 initialized @(2,0)
GPGPU-Sim uArch: core: 14, cta: 1 initialized @(2,0)
GPGPU-Sim uArch: core:  0, cta: 1 initialized @(2,0)
GPGPU-Sim uArch: core:  1, cta: 2 initialized @(3,0)
GPGPU-Sim uArch: core:  2, cta: 2 initialized @(3,0)
GPGPU-Sim uArch: core:  3, cta: 2 initialized @(3,0)
GPGPU-Sim uArch: core:  4, cta: 2 initialized @(3,0)
GPGPU-Sim uArch: core:  5, cta: 2 initialized @(3,0)
GPGPU-Sim uArch: core:  6, cta: 2 initialized @(3,0)
GPGPU-Sim uArch: core:  7, cta: 2 initialized @(3,0)
GPGPU-Sim uArch: core:  8, cta: 2 initialized @(3,0)
GPGPU-Sim uArch: core:  9, cta: 2 initialized @(3,0)
GPGPU-Sim uArch: core: 10, cta: 2 initialized @(3,0)
GPGPU-Sim uArch: core: 11, cta: 2 initialized @(3,0)
GPGPU-Sim uArch: core: 12, cta: 2 initialized @(3,0)
GPGPU-Sim uArch: core: 13, cta: 2 initialized @(3,0)
GPGPU-Sim uArch: core: 14, cta: 2 initialized @(3,0)
GPGPU-Sim uArch: core:  0, cta: 2 initialized @(3,0)
GPGPU-Sim uArch: core:  1, cta: 3 initialized @(4,0)
GPGPU-Sim uArch: core:  2, cta: 3 initialized @(4,0)
GPGPU-Sim uArch: core:  3, cta: 3 initialized @(4,0)
GPGPU-Sim uArch: core:  4, cta: 3 initialized @(4,0)
GPGPU-Sim uArch: core:  5, cta: 3 initialized @(4,0)
GPGPU-Sim uArch: core:  6, cta: 3 initialized @(4,0)
GPGPU-Sim uArch: core:  7, cta: 3 initialized @(4,0)
GPGPU-Sim uArch: core:  8, cta: 3 initialized @(4,0)
GPGPU-Sim uArch: core:  9, cta: 3 initialized @(4,0)
GPGPU-Sim uArch: core: 10, cta: 3 initialized @(4,0)
GPGPU-Sim uArch: core: 11, cta: 3 initialized @(4,0)
GPGPU-Sim uArch: core: 12, cta: 3 initialized @(4,0)
GPGPU-Sim uArch: core: 13, cta: 3 initialized @(4,0)
GPGPU-Sim uArch: core: 14, cta: 3 initialized @(4,0)
GPGPU-Sim uArch: core:  0, cta: 3 initialized @(4,0)
GPGPU-Sim uArch: core:  1, cta: 4 initialized @(5,0)
GPGPU-Sim uArch: core:  2, cta: 4 initialized @(5,0)
GPGPU-Sim uArch: core:  3, cta: 4 initialized @(5,0)
GPGPU-Sim uArch: core:  4, cta: 4 initialized @(5,0)
GPGPU-Sim uArch: core:  5, cta: 4 initialized @(5,0)
GPGPU-Sim uArch: core:  6, cta: 4 initialized @(5,0)
GPGPU-Sim uArch: core:  7, cta: 4 initialized @(5,0)
GPGPU-Sim uArch: core:  8, cta: 4 initialized @(5,0)
GPGPU-Sim uArch: core:  9, cta: 4 initialized @(5,0)
GPGPU-Sim uArch: core: 10, cta: 4 initialized @(5,0)
GPGPU-Sim uArch: core: 11, cta: 4 initialized @(5,0)
GPGPU-Sim uArch: core: 12, cta: 4 initialized @(5,0)
GPGPU-Sim uArch: core: 13, cta: 4 initialized @(5,0)
GPGPU-Sim uArch: core: 14, cta: 4 initialized @(5,0)
GPGPU-Sim uArch: core:  0, cta: 4 initialized @(5,0)
GPGPU-Sim uArch: core:  1, cta: 5 initialized @(6,0)
GPGPU-Sim uArch: core:  2, cta: 5 initialized @(6,0)
GPGPU-Sim uArch: core:  3, cta: 5 initialized @(6,0)
GPGPU-Sim uArch: core:  4, cta: 5 initialized @(6,0)
GPGPU-Sim uArch: core:  5, cta: 5 initialized @(6,0)
GPGPU-Sim uArch: core:  6, cta: 5 initialized @(6,0)
GPGPU-Sim uArch: core:  7, cta: 5 initialized @(6,0)
GPGPU-Sim uArch: core:  8, cta: 5 initialized @(6,0)
GPGPU-Sim uArch: core:  9, cta: 5 initialized @(6,0)
GPGPU-Sim uArch: core: 10, cta: 5 initialized @(6,0)
GPGPU-Sim uArch: core: 11, cta: 5 initialized @(6,0)
GPGPU-Sim uArch: core: 12, cta: 5 initialized @(6,0)
GPGPU-Sim uArch: core: 13, cta: 5 initialized @(6,0)
GPGPU-Sim uArch: core: 14, cta: 5 initialized @(6,0)
GPGPU-Sim uArch: core:  0, cta: 5 initialized @(6,0)
GPGPU-Sim uArch: cycles simulated: 500  inst.: 92000 (ipc=184.0) sim_rate=92000 (inst/sec) elapsed = 0:0:00:01 / Tue Apr 16 16:56:31 2019
GPGPU-Sim PTX: 100000 instructions simulated : ctaid=(0,5,0) tid=(15,9,0)
GPGPU-Sim PTX: 200000 instructions simulated : ctaid=(6,1,0) tid=(15,15,0)
GPGPU-Sim PTX: 300000 instructions simulated : ctaid=(1,1,0) tid=(15,11,0)
GPGPU-Sim PTX: 400000 instructions simulated : ctaid=(14,4,0) tid=(15,7,0)
GPGPU-Sim PTX: 500000 instructions simulated : ctaid=(7,2,0) tid=(15,7,0)
GPGPU-Sim uArch: cycles simulated: 1500  inst.: 521024 (ipc=347.3) sim_rate=260512 (inst/sec) elapsed = 0:0:00:02 / Tue Apr 16 16:56:32 2019
GPGPU-Sim PTX: 600000 instructions simulated : ctaid=(15,0,0) tid=(15,3,0)
GPGPU-Sim uArch: cycles simulated: 2500  inst.: 648288 (ipc=259.3) sim_rate=216096 (inst/sec) elapsed = 0:0:00:03 / Tue Apr 16 16:56:33 2019
GPGPU-Sim uArch: cycles simulated: 4000  inst.: 651680 (ipc=162.9) sim_rate=162920 (inst/sec) elapsed = 0:0:00:04 / Tue Apr 16 16:56:34 2019
GPGPU-Sim uArch: cycles simulated: 5000  inst.: 653216 (ipc=130.6) sim_rate=130643 (inst/sec) elapsed = 0:0:00:05 / Tue Apr 16 16:56:35 2019
GPGPU-Sim uArch: cycles simulated: 6500  inst.: 654720 (ipc=100.7) sim_rate=109120 (inst/sec) elapsed = 0:0:00:06 / Tue Apr 16 16:56:36 2019
GPGPU-Sim uArch: cycles simulated: 8500  inst.: 657728 (ipc=77.4) sim_rate=93961 (inst/sec) elapsed = 0:0:00:07 / Tue Apr 16 16:56:37 2019
GPGPU-Sim uArch: cycles simulated: 10000  inst.: 661312 (ipc=66.1) sim_rate=82664 (inst/sec) elapsed = 0:0:00:08 / Tue Apr 16 16:56:38 2019
GPGPU-Sim uArch: cycles simulated: 11500  inst.: 665312 (ipc=57.9) sim_rate=73923 (inst/sec) elapsed = 0:0:00:09 / Tue Apr 16 16:56:39 2019
GPGPU-Sim uArch: Shader 1 finished CTA #0 (12419,0), 5 CTAs running
GPGPU-Sim uArch: core:  1, cta: 0 initialized @(12420,0)
GPGPU-Sim uArch: cycles simulated: 13000  inst.: 672384 (ipc=51.7) sim_rate=67238 (inst/sec) elapsed = 0:0:00:10 / Tue Apr 16 16:56:40 2019
GPGPU-Sim PTX: 700000 instructions simulated : ctaid=(6,4,0) tid=(15,9,0)
GPGPU-Sim uArch: cycles simulated: 15000  inst.: 680640 (ipc=45.4) sim_rate=61876 (inst/sec) elapsed = 0:0:00:11 / Tue Apr 16 16:56:41 2019
GPGPU-Sim uArch: Shader 13 finished CTA #0 (15750,0), 5 CTAs running
GPGPU-Sim uArch: core: 13, cta: 0 initialized @(15751,0)
GPGPU-Sim uArch: cycles simulated: 16500  inst.: 691744 (ipc=41.9) sim_rate=57645 (inst/sec) elapsed = 0:0:00:12 / Tue Apr 16 16:56:42 2019
GPGPU-Sim uArch: Shader 12 finished CTA #0 (17593,0), 5 CTAs running
GPGPU-Sim uArch: core: 12, cta: 0 initialized @(17594,0)
GPGPU-Sim uArch: cycles simulated: 18000  inst.: 708352 (ipc=39.4) sim_rate=54488 (inst/sec) elapsed = 0:0:00:13 / Tue Apr 16 16:56:43 2019
GPGPU-Sim uArch: Shader 5 finished CTA #0 (18480,0), 5 CTAs running
GPGPU-Sim uArch: core:  5, cta: 0 initialized @(18481,0)
GPGPU-Sim uArch: Shader 8 finished CTA #0 (18521,0), 5 CTAs running
GPGPU-Sim uArch: core:  8, cta: 0 initialized @(18522,0)
GPGPU-Sim uArch: Shader 11 finished CTA #0 (18575,0), 5 CTAs running
GPGPU-Sim uArch: core: 11, cta: 0 initialized @(18576,0)
GPGPU-Sim uArch: Shader 3 finished CTA #0 (18825,0), 5 CTAs running
GPGPU-Sim uArch: core:  3, cta: 0 initialized @(18826,0)
GPGPU-Sim uArch: Shader 2 finished CTA #0 (18859,0), 5 CTAs running
GPGPU-Sim uArch: core:  2, cta: 0 initialized @(18860,0)
GPGPU-Sim uArch: Shader 14 finished CTA #0 (18895,0), 5 CTAs running
GPGPU-Sim uArch: core: 14, cta: 0 initialized @(18896,0)
GPGPU-Sim uArch: Shader 10 finished CTA #0 (18999,0), 5 CTAs running
GPGPU-Sim uArch: core: 10, cta: 0 initialized @(19000,0)
GPGPU-Sim uArch: Shader 9 finished CTA #0 (19137,0), 5 CTAs running
GPGPU-Sim uArch: core:  9, cta: 0 initialized @(19138,0)
GPGPU-Sim uArch: Shader 0 finished CTA #0 (19192,0), 5 CTAs running
GPGPU-Sim uArch: core:  0, cta: 0 initialized @(19193,0)
GPGPU-Sim uArch: Shader 7 finished CTA #0 (19358,0), 5 CTAs running
GPGPU-Sim uArch: core:  7, cta: 0 initialized @(19359,0)
GPGPU-Sim uArch: cycles simulated: 19500  inst.: 762112 (ipc=39.1) sim_rate=54436 (inst/sec) elapsed = 0:0:00:14 / Tue Apr 16 16:56:44 2019
GPGPU-Sim uArch: Shader 6 finished CTA #0 (19558,0), 5 CTAs running
GPGPU-Sim uArch: core:  6, cta: 0 initialized @(19559,0)
GPGPU-Sim PTX: 800000 instructions simulated : ctaid=(3,6,0) tid=(15,15,0)
GPGPU-Sim uArch: Shader 12 finished CTA #1 (20268,0), 5 CTAs running
GPGPU-Sim uArch: core: 12, cta: 1 initialized @(20269,0)
GPGPU-Sim uArch: Shader 5 finished CTA #1 (20435,0), 5 CTAs running
GPGPU-Sim uArch: core:  5, cta: 1 initialized @(20436,0)
GPGPU-Sim uArch: Shader 11 finished CTA #1 (20528,0), 5 CTAs running
GPGPU-Sim uArch: core: 11, cta: 1 initialized @(20529,0)
GPGPU-Sim uArch: Shader 6 finished CTA #1 (20856,0), 5 CTAs running
GPGPU-Sim uArch: core:  6, cta: 1 initialized @(20857,0)
GPGPU-Sim uArch: Shader 0 finished CTA #1 (20975,0), 5 CTAs running
GPGPU-Sim uArch: core:  0, cta: 1 initialized @(20976,0)
GPGPU-Sim uArch: cycles simulated: 21000  inst.: 808960 (ipc=38.5) sim_rate=53930 (inst/sec) elapsed = 0:0:00:15 / Tue Apr 16 16:56:45 2019
GPGPU-Sim uArch: Shader 4 finished CTA #0 (21056,0), 5 CTAs running
GPGPU-Sim uArch: core:  4, cta: 0 initialized @(21057,0)
GPGPU-Sim uArch: Shader 14 finished CTA #1 (21460,0), 5 CTAs running
GPGPU-Sim uArch: core: 14, cta: 1 initialized @(21461,0)
GPGPU-Sim uArch: Shader 6 finished CTA #2 (21615,0), 5 CTAs running
GPGPU-Sim uArch: core:  6, cta: 2 initialized @(21616,0)
GPGPU-Sim uArch: Shader 1 finished CTA #1 (21674,0), 5 CTAs running
GPGPU-Sim uArch: core:  1, cta: 1 initialized @(21675,0)
GPGPU-Sim uArch: Shader 13 finished CTA #1 (21810,0), 5 CTAs running
GPGPU-Sim uArch: core: 13, cta: 1 initialized @(21811,0)
GPGPU-Sim uArch: Shader 8 finished CTA #1 (21892,0), 5 CTAs running
GPGPU-Sim uArch: core:  8, cta: 1 initialized @(21893,0)
GPGPU-Sim uArch: Shader 11 finished CTA #2 (22148,0), 5 CTAs running
GPGPU-Sim uArch: core: 11, cta: 2 initialized @(22149,0)
GPGPU-Sim uArch: Shader 8 finished CTA #2 (22182,0), 5 CTAs running
GPGPU-Sim uArch: core:  8, cta: 2 initialized @(22183,0)
GPGPU-Sim uArch: Shader 5 finished CTA #2 (22323,0), 5 CTAs running
GPGPU-Sim uArch: core:  5, cta: 2 initialized @(22324,0)
GPGPU-Sim uArch: cycles simulated: 22500  inst.: 860000 (ipc=38.2) sim_rate=53750 (inst/sec) elapsed = 0:0:00:16 / Tue Apr 16 16:56:46 2019
GPGPU-Sim uArch: Shader 4 finished CTA #1 (22825,0), 5 CTAs running
GPGPU-Sim uArch: core:  4, cta: 1 initialized @(22826,0)
GPGPU-Sim uArch: Shader 0 finished CTA #2 (22893,0), 5 CTAs running
GPGPU-Sim uArch: core:  0, cta: 2 initialized @(22894,0)
GPGPU-Sim PTX: 900000 instructions simulated : ctaid=(7,7,0) tid=(15,7,0)
GPGPU-Sim uArch: Shader 4 finished CTA #4 (23032,0), 5 CTAs running
GPGPU-Sim uArch: core:  4, cta: 4 initialized @(23033,0)
GPGPU-Sim uArch: Shader 10 finished CTA #1 (23112,0), 5 CTAs running
GPGPU-Sim uArch: core: 10, cta: 1 initialized @(23113,0)
GPGPU-Sim uArch: Shader 7 finished CTA #1 (23324,0), 5 CTAs running
GPGPU-Sim uArch: core:  7, cta: 1 initialized @(23325,0)
GPGPU-Sim uArch: Shader 9 finished CTA #1 (23415,0), 5 CTAs running
GPGPU-Sim uArch: core:  9, cta: 1 initialized @(23416,0)
GPGPU-Sim uArch: Shader 3 finished CTA #1 (23780,0), 5 CTAs running
GPGPU-Sim uArch: core:  3, cta: 1 initialized @(23781,0)
GPGPU-Sim uArch: cycles simulated: 24000  inst.: 917408 (ipc=38.2) sim_rate=53965 (inst/sec) elapsed = 0:0:00:17 / Tue Apr 16 16:56:47 2019
GPGPU-Sim uArch: Shader 6 finished CTA #3 (24138,0), 5 CTAs running
GPGPU-Sim uArch: core:  6, cta: 3 initialized @(24139,0)
GPGPU-Sim uArch: Shader 14 finished CTA #2 (24234,0), 5 CTAs running
GPGPU-Sim uArch: core: 14, cta: 2 initialized @(24235,0)
GPGPU-Sim uArch: Shader 4 finished CTA #2 (24505,0), 5 CTAs running
GPGPU-Sim uArch: core:  4, cta: 2 initialized @(24506,0)
GPGPU-Sim uArch: Shader 2 finished CTA #1 (24559,0), 5 CTAs running
GPGPU-Sim uArch: core:  2, cta: 1 initialized @(24560,0)
GPGPU-Sim uArch: Shader 13 finished CTA #2 (24720,0), 5 CTAs running
GPGPU-Sim uArch: core: 13, cta: 2 initialized @(24721,0)
GPGPU-Sim uArch: Shader 0 finished CTA #3 (24869,0), 5 CTAs running
GPGPU-Sim uArch: core:  0, cta: 3 initialized @(24870,0)
GPGPU-Sim uArch: Shader 7 finished CTA #2 (24938,0), 5 CTAs running
GPGPU-Sim uArch: core:  7, cta: 2 initialized @(24939,0)
GPGPU-Sim uArch: Shader 11 finished CTA #3 (25136,0), 5 CTAs running
GPGPU-Sim uArch: core: 11, cta: 3 initialized @(25137,0)
GPGPU-Sim uArch: cycles simulated: 25500  inst.: 967040 (ipc=37.9) sim_rate=53724 (inst/sec) elapsed = 0:0:00:18 / Tue Apr 16 16:56:48 2019
GPGPU-Sim uArch: Shader 8 finished CTA #3 (25501,0), 5 CTAs running
GPGPU-Sim uArch: core:  8, cta: 3 initialized @(25502,0)
GPGPU-Sim PTX: 1000000 instructions simulated : ctaid=(3,8,0) tid=(15,13,0)
GPGPU-Sim uArch: Shader 10 finished CTA #2 (25655,0), 5 CTAs running
GPGPU-Sim uArch: core: 10, cta: 2 initialized @(25656,0)
GPGPU-Sim uArch: Shader 4 finished CTA #3 (25657,0), 5 CTAs running
GPGPU-Sim uArch: core:  4, cta: 3 initialized @(25658,0)
GPGPU-Sim uArch: Shader 2 finished CTA #2 (25662,0), 5 CTAs running
GPGPU-Sim uArch: core:  2, cta: 2 initialized @(25663,0)
GPGPU-Sim uArch: Shader 10 finished CTA #3 (25980,0), 5 CTAs running
GPGPU-Sim uArch: core: 10, cta: 3 initialized @(25981,0)
GPGPU-Sim uArch: Shader 3 finished CTA #2 (26063,0), 5 CTAs running
GPGPU-Sim uArch: core:  3, cta: 2 initialized @(26064,0)
GPGPU-Sim uArch: Shader 3 finished CTA #3 (26270,0), 5 CTAs running
GPGPU-Sim uArch: core:  3, cta: 3 initialized @(26271,0)
GPGPU-Sim uArch: Shader 2 finished CTA #3 (26334,0), 5 CTAs running
GPGPU-Sim uArch: core:  2, cta: 3 initialized @(26335,0)
GPGPU-Sim uArch: Shader 1 finished CTA #2 (26415,0), 5 CTAs running
GPGPU-Sim uArch: core:  1, cta: 2 initialized @(26416,0)
GPGPU-Sim uArch: Shader 14 finished CTA #3 (26430,0), 5 CTAs running
GPGPU-Sim uArch: core: 14, cta: 3 initialized @(26431,0)
GPGPU-Sim uArch: Shader 3 finished CTA #4 (26436,0), 5 CTAs running
GPGPU-Sim uArch: core:  3, cta: 4 initialized @(26437,0)
GPGPU-Sim uArch: Shader 7 finished CTA #3 (26529,0), 5 CTAs running
GPGPU-Sim uArch: core:  7, cta: 3 initialized @(26530,0)
GPGPU-Sim uArch: Shader 1 finished CTA #3 (26607,0), 5 CTAs running
GPGPU-Sim uArch: core:  1, cta: 3 initialized @(26608,0)
GPGPU-Sim uArch: Shader 13 finished CTA #3 (26806,0), 5 CTAs running
GPGPU-Sim uArch: core: 13, cta: 3 initialized @(26807,0)
GPGPU-Sim uArch: Shader 2 finished CTA #4 (26926,0), 5 CTAs running
GPGPU-Sim uArch: core:  2, cta: 4 initialized @(26927,0)
GPGPU-Sim uArch: cycles simulated: 27000  inst.: 1040256 (ipc=38.5) sim_rate=54750 (inst/sec) elapsed = 0:0:00:19 / Tue Apr 16 16:56:49 2019
GPGPU-Sim uArch: Shader 8 finished CTA #4 (27004,0), 5 CTAs running
GPGPU-Sim uArch: core:  8, cta: 4 initialized @(27005,0)
GPGPU-Sim uArch: Shader 4 finished CTA #5 (27352,0), 5 CTAs running
GPGPU-Sim uArch: core:  4, cta: 5 initialized @(27353,0)
GPGPU-Sim uArch: Shader 6 finished CTA #4 (27670,0), 5 CTAs running
GPGPU-Sim uArch: core:  6, cta: 4 initialized @(27671,0)
GPGPU-Sim PTX: 1100000 instructions simulated : ctaid=(3,8,0) tid=(15,1,0)
GPGPU-Sim uArch: Shader 9 finished CTA #2 (27965,0), 5 CTAs running
GPGPU-Sim uArch: core:  9, cta: 2 initialized @(27966,0)
GPGPU-Sim uArch: Shader 10 finished CTA #4 (28084,0), 5 CTAs running
GPGPU-Sim uArch: core: 10, cta: 4 initialized @(28085,0)
GPGPU-Sim uArch: Shader 5 finished CTA #3 (28349,0), 5 CTAs running
GPGPU-Sim uArch: core:  5, cta: 3 initialized @(28350,0)
GPGPU-Sim uArch: Shader 0 finished CTA #4 (28353,0), 5 CTAs running
GPGPU-Sim uArch: core:  0, cta: 4 initialized @(28354,0)
GPGPU-Sim uArch: Shader 9 finished CTA #3 (28376,0), 5 CTAs running
GPGPU-Sim uArch: core:  9, cta: 3 initialized @(28377,0)
GPGPU-Sim uArch: cycles simulated: 28500  inst.: 1104416 (ipc=38.8) sim_rate=55220 (inst/sec) elapsed = 0:0:00:20 / Tue Apr 16 16:56:50 2019
GPGPU-Sim uArch: Shader 13 finished CTA #4 (28817,0), 5 CTAs running
GPGPU-Sim uArch: core: 13, cta: 4 initialized @(28818,0)
GPGPU-Sim uArch: Shader 1 finished CTA #4 (28918,0), 5 CTAs running
GPGPU-Sim uArch: core:  1, cta: 4 initialized @(28919,0)
GPGPU-Sim uArch: Shader 9 finished CTA #4 (29238,0), 5 CTAs running
GPGPU-Sim uArch: core:  9, cta: 4 initialized @(29239,0)
GPGPU-Sim uArch: Shader 2 finished CTA #5 (29392,0), 5 CTAs running
GPGPU-Sim uArch: core:  2, cta: 5 initialized @(29393,0)
GPGPU-Sim uArch: cycles simulated: 30000  inst.: 1135584 (ipc=37.9) sim_rate=54075 (inst/sec) elapsed = 0:0:00:21 / Tue Apr 16 16:56:51 2019
GPGPU-Sim uArch: Shader 14 finished CTA #4 (30378,0), 5 CTAs running
GPGPU-Sim uArch: core: 14, cta: 4 initialized @(30379,0)
GPGPU-Sim uArch: Shader 7 finished CTA #4 (30835,0), 5 CTAs running
GPGPU-Sim uArch: core:  7, cta: 4 initialized @(30836,0)
GPGPU-Sim uArch: Shader 6 finished CTA #5 (31034,0), 5 CTAs running
GPGPU-Sim uArch: core:  6, cta: 5 initialized @(31035,0)
GPGPU-Sim PTX: 1200000 instructions simulated : ctaid=(0,10,0) tid=(15,13,0)
GPGPU-Sim uArch: Shader 13 finished CTA #5 (31185,0), 5 CTAs running
GPGPU-Sim uArch: core: 13, cta: 5 initialized @(31186,0)
GPGPU-Sim uArch: Shader 12 finished CTA #2 (31391,0), 5 CTAs running
GPGPU-Sim uArch: core: 12, cta: 2 initialized @(31392,0)
GPGPU-Sim uArch: cycles simulated: 31500  inst.: 1169920 (ipc=37.1) sim_rate=53178 (inst/sec) elapsed = 0:0:00:22 / Tue Apr 16 16:56:52 2019
GPGPU-Sim uArch: Shader 3 finished CTA #5 (31662,0), 5 CTAs running
GPGPU-Sim uArch: core:  3, cta: 5 initialized @(31663,0)
GPGPU-Sim uArch: Shader 1 finished CTA #5 (31965,0), 5 CTAs running
GPGPU-Sim uArch: core:  1, cta: 5 initialized @(31966,0)
GPGPU-Sim uArch: Shader 12 finished CTA #3 (32227,0), 5 CTAs running
GPGPU-Sim uArch: core: 12, cta: 3 initialized @(32228,0)
GPGPU-Sim uArch: Shader 2 finished CTA #0 (32416,0), 5 CTAs running
GPGPU-Sim uArch: core:  2, cta: 0 initialized @(32417,0)
GPGPU-Sim uArch: Shader 0 finished CTA #5 (32904,0), 5 CTAs running
GPGPU-Sim uArch: core:  0, cta: 5 initialized @(32905,0)
GPGPU-Sim uArch: cycles simulated: 33000  inst.: 1225696 (ipc=37.1) sim_rate=53291 (inst/sec) elapsed = 0:0:00:23 / Tue Apr 16 16:56:53 2019
GPGPU-Sim uArch: Shader 11 finished CTA #4 (33054,0), 5 CTAs running
GPGPU-Sim uArch: core: 11, cta: 4 initialized @(33055,0)
GPGPU-Sim uArch: Shader 2 finished CTA #1 (33208,0), 5 CTAs running
GPGPU-Sim uArch: core:  2, cta: 1 initialized @(33209,0)
GPGPU-Sim uArch: Shader 5 finished CTA #4 (33293,0), 5 CTAs running
GPGPU-Sim uArch: core:  5, cta: 4 initialized @(33294,0)
GPGPU-Sim uArch: Shader 2 finished CTA #2 (33487,0), 5 CTAs running
GPGPU-Sim uArch: core:  2, cta: 2 initialized @(33488,0)
GPGPU-Sim PTX: 1300000 instructions simulated : ctaid=(9,7,0) tid=(15,7,0)
GPGPU-Sim uArch: Shader 2 finished CTA #3 (33671,0), 5 CTAs running
GPGPU-Sim uArch: core:  2, cta: 3 initialized @(33672,0)
GPGPU-Sim uArch: Shader 10 finished CTA #5 (33784,0), 5 CTAs running
GPGPU-Sim uArch: core: 10, cta: 5 initialized @(33785,0)
GPGPU-Sim uArch: Shader 4 finished CTA #0 (33935,0), 5 CTAs running
GPGPU-Sim uArch: core:  4, cta: 0 initialized @(33936,0)
GPGPU-Sim uArch: Shader 7 finished CTA #5 (34017,0), 5 CTAs running
GPGPU-Sim uArch: core:  7, cta: 5 initialized @(34018,0)
GPGPU-Sim uArch: Shader 13 finished CTA #0 (34108,0), 5 CTAs running
GPGPU-Sim uArch: core: 13, cta: 0 initialized @(34109,0)
GPGPU-Sim uArch: Shader 2 finished CTA #4 (34308,0), 5 CTAs running
GPGPU-Sim uArch: core:  2, cta: 4 initialized @(34309,0)
GPGPU-Sim uArch: Shader 1 finished CTA #0 (34390,0), 5 CTAs running
GPGPU-Sim uArch: core:  1, cta: 0 initialized @(34391,0)
GPGPU-Sim uArch: cycles simulated: 34500  inst.: 1347328 (ipc=39.1) sim_rate=56138 (inst/sec) elapsed = 0:0:00:24 / Tue Apr 16 16:56:54 2019
GPGPU-Sim uArch: Shader 12 finished CTA #4 (34503,0), 5 CTAs running
GPGPU-Sim uArch: core: 12, cta: 4 initialized @(34504,0)
GPGPU-Sim uArch: Shader 9 finished CTA #5 (34621,0), 5 CTAs running
GPGPU-Sim uArch: core:  9, cta: 5 initialized @(34622,0)
GPGPU-Sim uArch: Shader 8 finished CTA #5 (34623,0), 5 CTAs running
GPGPU-Sim uArch: core:  8, cta: 5 initialized @(34624,0)
GPGPU-Sim PTX: 1400000 instructions simulated : ctaid=(6,11,0) tid=(15,1,0)
GPGPU-Sim uArch: Shader 5 finished CTA #5 (34876,0), 5 CTAs running
GPGPU-Sim uArch: core:  5, cta: 5 initialized @(34877,0)
GPGPU-Sim uArch: Shader 11 finished CTA #5 (34884,0), 5 CTAs running
GPGPU-Sim uArch: core: 11, cta: 5 initialized @(34885,0)
GPGPU-Sim uArch: Shader 14 finished CTA #5 (34930,0), 5 CTAs running
GPGPU-Sim uArch: core: 14, cta: 5 initialized @(34931,0)
GPGPU-Sim uArch: Shader 2 finished CTA #5 (35230,0), 5 CTAs running
GPGPU-Sim uArch: core:  2, cta: 5 initialized @(35231,0)
GPGPU-Sim uArch: cycles simulated: 35500  inst.: 1397888 (ipc=39.4) sim_rate=55915 (inst/sec) elapsed = 0:0:00:25 / Tue Apr 16 16:56:55 2019
GPGPU-Sim uArch: cycles simulated: 37000  inst.: 1420128 (ipc=38.4) sim_rate=54620 (inst/sec) elapsed = 0:0:00:26 / Tue Apr 16 16:56:56 2019
GPGPU-Sim uArch: Shader 1 finished CTA #1 (37143,0), 5 CTAs running
GPGPU-Sim uArch: core:  1, cta: 1 initialized @(37144,0)
GPGPU-Sim uArch: Shader 3 finished CTA #0 (38343,0), 5 CTAs running
GPGPU-Sim uArch: core:  3, cta: 0 initialized @(38344,0)
GPGPU-Sim PTX: 1500000 instructions simulated : ctaid=(4,7,0) tid=(15,7,0)
GPGPU-Sim uArch: Shader 6 finished CTA #0 (38891,0), 5 CTAs running
GPGPU-Sim uArch: core:  6, cta: 0 initialized @(38892,0)
GPGPU-Sim uArch: cycles simulated: 39000  inst.: 1464480 (ipc=37.6) sim_rate=54240 (inst/sec) elapsed = 0:0:00:27 / Tue Apr 16 16:56:57 2019
GPGPU-Sim uArch: Shader 12 finished CTA #5 (39016,0), 5 CTAs running
GPGPU-Sim uArch: core: 12, cta: 5 initialized @(39017,0)
GPGPU-Sim uArch: Shader 10 finished CTA #0 (39065,0), 5 CTAs running
GPGPU-Sim uArch: core: 10, cta: 0 initialized @(39066,0)
GPGPU-Sim uArch: Shader 8 finished CTA #0 (39185,0), 5 CTAs running
GPGPU-Sim uArch: core:  8, cta: 0 initialized @(39186,0)
GPGPU-Sim uArch: Shader 10 finished CTA #1 (39256,0), 5 CTAs running
GPGPU-Sim uArch: core: 10, cta: 1 initialized @(39257,0)
GPGPU-Sim uArch: Shader 13 finished CTA #1 (39840,0), 5 CTAs running
GPGPU-Sim uArch: core: 13, cta: 1 initialized @(39841,0)
GPGPU-Sim uArch: cycles simulated: 40500  inst.: 1504576 (ipc=37.2) sim_rate=53734 (inst/sec) elapsed = 0:0:00:28 / Tue Apr 16 16:56:58 2019
GPGPU-Sim uArch: Shader 5 finished CTA #0 (41156,0), 5 CTAs running
GPGPU-Sim uArch: core:  5, cta: 0 initialized @(41157,0)
GPGPU-Sim uArch: Shader 5 finished CTA #1 (41350,0), 5 CTAs running
GPGPU-Sim uArch: core:  5, cta: 1 initialized @(41351,0)
GPGPU-Sim uArch: Shader 5 finished CTA #2 (41547,0), 5 CTAs running
GPGPU-Sim uArch: core:  5, cta: 2 initialized @(41548,0)
GPGPU-Sim uArch: Shader 4 finished CTA #1 (41832,0), 5 CTAs running
GPGPU-Sim uArch: core:  4, cta: 1 initialized @(41833,0)
GPGPU-Sim uArch: cycles simulated: 42000  inst.: 1538720 (ipc=36.6) sim_rate=53059 (inst/sec) elapsed = 0:0:00:29 / Tue Apr 16 16:56:59 2019
GPGPU-Sim uArch: Shader 0 finished CTA #0 (42049,0), 5 CTAs running
GPGPU-Sim uArch: core:  0, cta: 0 initialized @(42050,0)
GPGPU-Sim uArch: Shader 7 finished CTA #0 (42255,0), 5 CTAs running
GPGPU-Sim uArch: core:  7, cta: 0 initialized @(42256,0)
GPGPU-Sim PTX: 1600000 instructions simulated : ctaid=(4,10,0) tid=(15,3,0)
GPGPU-Sim uArch: Shader 13 finished CTA #2 (42620,0), 5 CTAs running
GPGPU-Sim uArch: core: 13, cta: 2 initialized @(42621,0)
GPGPU-Sim uArch: Shader 14 finished CTA #0 (42634,0), 5 CTAs running
GPGPU-Sim uArch: core: 14, cta: 0 initialized @(42635,0)
GPGPU-Sim uArch: Shader 7 finished CTA #1 (43227,0), 5 CTAs running
GPGPU-Sim uArch: core:  7, cta: 1 initialized @(43228,0)
GPGPU-Sim uArch: Shader 11 finished CTA #0 (43336,0), 5 CTAs running
GPGPU-Sim uArch: core: 11, cta: 0 initialized @(43337,0)
GPGPU-Sim uArch: Shader 11 finished CTA #1 (43432,0), 5 CTAs running
GPGPU-Sim uArch: core: 11, cta: 1 initialized @(43433,0)
GPGPU-Sim uArch: cycles simulated: 43500  inst.: 1595072 (ipc=36.7) sim_rate=53169 (inst/sec) elapsed = 0:0:00:30 / Tue Apr 16 16:57:00 2019
GPGPU-Sim uArch: Shader 6 finished CTA #1 (43684,0), 5 CTAs running
GPGPU-Sim uArch: core:  6, cta: 1 initialized @(43685,0)
GPGPU-Sim uArch: Shader 11 finished CTA #2 (43839,0), 5 CTAs running
GPGPU-Sim uArch: core: 11, cta: 2 initialized @(43840,0)
GPGPU-Sim uArch: Shader 8 finished CTA #1 (44185,0), 5 CTAs running
GPGPU-Sim uArch: core:  8, cta: 1 initialized @(44186,0)
GPGPU-Sim PTX: 1700000 instructions simulated : ctaid=(1,9,0) tid=(15,15,0)
GPGPU-Sim uArch: Shader 12 finished CTA #0 (44734,0), 5 CTAs running
GPGPU-Sim uArch: core: 12, cta: 0 initialized @(44735,0)
GPGPU-Sim uArch: Shader 8 finished CTA #2 (44766,0), 5 CTAs running
GPGPU-Sim uArch: core:  8, cta: 2 initialized @(44767,0)
GPGPU-Sim uArch: Shader 4 finished CTA #4 (44928,0), 5 CTAs running
GPGPU-Sim uArch: core:  4, cta: 4 initialized @(44929,0)
GPGPU-Sim uArch: cycles simulated: 45000  inst.: 1678976 (ipc=37.3) sim_rate=54160 (inst/sec) elapsed = 0:0:00:31 / Tue Apr 16 16:57:01 2019
GPGPU-Sim uArch: Shader 14 finished CTA #1 (45188,0), 5 CTAs running
GPGPU-Sim uArch: core: 14, cta: 1 initialized @(45189,0)
GPGPU-Sim uArch: Shader 1 finished CTA #2 (45506,0), 5 CTAs running
GPGPU-Sim uArch: core:  1, cta: 2 initialized @(45507,0)
GPGPU-Sim uArch: Shader 4 finished CTA #2 (45586,0), 5 CTAs running
GPGPU-Sim uArch: core:  4, cta: 2 initialized @(45587,0)
GPGPU-Sim uArch: Shader 14 finished CTA #2 (45600,0), 5 CTAs running
GPGPU-Sim uArch: core: 14, cta: 2 initialized @(45601,0)
GPGPU-Sim uArch: Shader 6 finished CTA #2 (45606,0), 5 CTAs running
GPGPU-Sim uArch: core:  6, cta: 2 initialized @(45607,0)
GPGPU-Sim uArch: Shader 10 finished CTA #2 (45846,0), 5 CTAs running
GPGPU-Sim uArch: core: 10, cta: 2 initialized @(45847,0)
GPGPU-Sim uArch: Shader 6 finished CTA #3 (45959,0), 5 CTAs running
GPGPU-Sim uArch: core:  6, cta: 3 initialized @(45960,0)
GPGPU-Sim uArch: Shader 3 finished CTA #1 (45991,0), 5 CTAs running
GPGPU-Sim uArch: core:  3, cta: 1 initialized @(45992,0)
GPGPU-Sim uArch: Shader 0 finished CTA #1 (46137,0), 5 CTAs running
GPGPU-Sim uArch: core:  0, cta: 1 initialized @(46138,0)
GPGPU-Sim uArch: Shader 0 finished CTA #2 (46173,0), 5 CTAs running
GPGPU-Sim uArch: core:  0, cta: 2 initialized @(46174,0)
GPGPU-Sim uArch: Shader 2 finished CTA #0 (46248,0), 5 CTAs running
GPGPU-Sim uArch: core:  2, cta: 0 initialized @(46249,0)
GPGPU-Sim uArch: Shader 13 finished CTA #3 (46443,0), 5 CTAs running
GPGPU-Sim uArch: core: 13, cta: 3 initialized @(46444,0)
GPGPU-Sim uArch: cycles simulated: 46500  inst.: 1740608 (ipc=37.4) sim_rate=54394 (inst/sec) elapsed = 0:0:00:32 / Tue Apr 16 16:57:02 2019
GPGPU-Sim uArch: Shader 9 finished CTA #0 (46500,0), 5 CTAs running
GPGPU-Sim uArch: core:  9, cta: 0 initialized @(46501,0)
GPGPU-Sim uArch: Shader 9 finished CTA #1 (46725,0), 5 CTAs running
GPGPU-Sim uArch: core:  9, cta: 1 initialized @(46726,0)
GPGPU-Sim uArch: Shader 8 finished CTA #3 (46792,0), 5 CTAs running
GPGPU-Sim uArch: core:  8, cta: 3 initialized @(46793,0)
GPGPU-Sim PTX: 1800000 instructions simulated : ctaid=(3,14,0) tid=(15,3,0)
GPGPU-Sim uArch: Shader 11 finished CTA #3 (47296,0), 5 CTAs running
GPGPU-Sim uArch: core: 11, cta: 3 initialized @(47297,0)
GPGPU-Sim uArch: Shader 12 finished CTA #1 (47747,0), 5 CTAs running
GPGPU-Sim uArch: core: 12, cta: 1 initialized @(47748,0)
GPGPU-Sim uArch: cycles simulated: 48000  inst.: 1780960 (ipc=37.1) sim_rate=53968 (inst/sec) elapsed = 0:0:00:33 / Tue Apr 16 16:57:03 2019
GPGPU-Sim uArch: Shader 5 finished CTA #3 (48142,0), 5 CTAs running
GPGPU-Sim uArch: core:  5, cta: 3 initialized @(48143,0)
GPGPU-Sim uArch: Shader 7 finished CTA #2 (48193,0), 5 CTAs running
GPGPU-Sim uArch: core:  7, cta: 2 initialized @(48194,0)
GPGPU-Sim uArch: Shader 4 finished CTA #3 (48405,0), 5 CTAs running
GPGPU-Sim uArch: core:  4, cta: 3 initialized @(48406,0)
GPGPU-Sim uArch: Shader 14 finished CTA #3 (48479,0), 5 CTAs running
GPGPU-Sim uArch: core: 14, cta: 3 initialized @(48480,0)
GPGPU-Sim uArch: Shader 6 finished CTA #4 (48594,0), 5 CTAs running
GPGPU-Sim uArch: core:  6, cta: 4 initialized @(48595,0)
GPGPU-Sim uArch: Shader 3 finished CTA #2 (48743,0), 5 CTAs running
GPGPU-Sim uArch: core:  3, cta: 2 initialized @(48744,0)
GPGPU-Sim uArch: Shader 0 finished CTA #3 (48853,0), 5 CTAs running
GPGPU-Sim uArch: core:  0, cta: 3 initialized @(48854,0)
GPGPU-Sim uArch: Shader 10 finished CTA #3 (49049,0), 5 CTAs running
GPGPU-Sim uArch: core: 10, cta: 3 initialized @(49050,0)
GPGPU-Sim PTX: 1900000 instructions simulated : ctaid=(5,11,0) tid=(15,15,0)
GPGPU-Sim uArch: Shader 8 finished CTA #4 (49488,0), 5 CTAs running
GPGPU-Sim uArch: core:  8, cta: 4 initialized @(49489,0)
GPGPU-Sim uArch: cycles simulated: 49500  inst.: 1852096 (ipc=37.4) sim_rate=54473 (inst/sec) elapsed = 0:0:00:34 / Tue Apr 16 16:57:04 2019
GPGPU-Sim uArch: Shader 9 finished CTA #2 (49753,0), 5 CTAs running
GPGPU-Sim uArch: core:  9, cta: 2 initialized @(49754,0)
GPGPU-Sim uArch: Shader 12 finished CTA #2 (49796,0), 5 CTAs running
GPGPU-Sim uArch: core: 12, cta: 2 initialized @(49797,0)
GPGPU-Sim uArch: Shader 11 finished CTA #4 (49900,0), 5 CTAs running
GPGPU-Sim uArch: core: 11, cta: 4 initialized @(49901,0)
GPGPU-Sim uArch: Shader 4 finished CTA #5 (50110,0), 5 CTAs running
GPGPU-Sim uArch: core:  4, cta: 5 initialized @(50111,0)
GPGPU-Sim uArch: Shader 1 finished CTA #3 (50378,0), 5 CTAs running
GPGPU-Sim uArch: core:  1, cta: 3 initialized @(50379,0)
GPGPU-Sim uArch: Shader 13 finished CTA #4 (50466,0), 5 CTAs running
GPGPU-Sim uArch: core: 13, cta: 4 initialized @(50467,0)
GPGPU-Sim uArch: cycles simulated: 50500  inst.: 1911776 (ipc=37.9) sim_rate=54622 (inst/sec) elapsed = 0:0:00:35 / Tue Apr 16 16:57:05 2019
GPGPU-Sim uArch: Shader 3 finished CTA #3 (51018,0), 5 CTAs running
GPGPU-Sim uArch: core:  3, cta: 3 initialized @(51019,0)
GPGPU-Sim uArch: Shader 14 finished CTA #4 (51023,0), 5 CTAs running
GPGPU-Sim uArch: core: 14, cta: 4 initialized @(51024,0)
GPGPU-Sim PTX: 2000000 instructions simulated : ctaid=(6,15,0) tid=(15,15,0)
GPGPU-Sim uArch: Shader 0 finished CTA #4 (51055,0), 5 CTAs running
GPGPU-Sim uArch: core:  0, cta: 4 initialized @(51056,0)
GPGPU-Sim uArch: Shader 5 finished CTA #4 (51084,0), 5 CTAs running
GPGPU-Sim uArch: core:  5, cta: 4 initialized @(51085,0)
GPGPU-Sim uArch: Shader 10 finished CTA #4 (51096,0), 5 CTAs running
GPGPU-Sim uArch: core: 10, cta: 4 initialized @(51097,0)
GPGPU-Sim uArch: Shader 6 finished CTA #5 (51229,0), 5 CTAs running
GPGPU-Sim uArch: core:  6, cta: 5 initialized @(51230,0)
GPGPU-Sim uArch: Shader 2 finished CTA #1 (51530,0), 5 CTAs running
GPGPU-Sim uArch: core:  2, cta: 1 initialized @(51531,0)
GPGPU-Sim uArch: Shader 7 finished CTA #3 (51538,0), 5 CTAs running
GPGPU-Sim uArch: core:  7, cta: 3 initialized @(51539,0)
GPGPU-Sim uArch: Shader 9 finished CTA #3 (51727,0), 5 CTAs running
GPGPU-Sim uArch: core:  9, cta: 3 initialized @(51728,0)
GPGPU-Sim uArch: cycles simulated: 52000  inst.: 1981760 (ipc=38.1) sim_rate=55048 (inst/sec) elapsed = 0:0:00:36 / Tue Apr 16 16:57:06 2019
GPGPU-Sim uArch: Shader 8 finished CTA #5 (52337,0), 5 CTAs running
GPGPU-Sim uArch: core:  8, cta: 5 initialized @(52338,0)
GPGPU-Sim uArch: Shader 4 finished CTA #0 (52500,0), 5 CTAs running
GPGPU-Sim uArch: core:  4, cta: 0 initialized @(52501,0)
GPGPU-Sim uArch: Shader 8 finished CTA #0 (52906,0), 5 CTAs running
GPGPU-Sim uArch: core:  8, cta: 0 initialized @(52907,0)
GPGPU-Sim uArch: Shader 3 finished CTA #4 (53165,0), 5 CTAs running
GPGPU-Sim uArch: core:  3, cta: 4 initialized @(53166,0)
GPGPU-Sim PTX: 2100000 instructions simulated : ctaid=(10,12,0) tid=(15,3,0)
GPGPU-Sim uArch: Shader 8 finished CTA #1 (53322,0), 5 CTAs running
GPGPU-Sim uArch: core:  8, cta: 1 initialized @(53323,0)
GPGPU-Sim uArch: Shader 12 finished CTA #3 (53344,0), 5 CTAs running
GPGPU-Sim uArch: core: 12, cta: 3 initialized @(53345,0)
GPGPU-Sim uArch: cycles simulated: 53500  inst.: 2057120 (ipc=38.5) sim_rate=55597 (inst/sec) elapsed = 0:0:00:37 / Tue Apr 16 16:57:07 2019
GPGPU-Sim uArch: Shader 8 finished CTA #2 (53536,0), 5 CTAs running
GPGPU-Sim uArch: core:  8, cta: 2 initialized @(53537,0)
GPGPU-Sim uArch: Shader 13 finished CTA #5 (53599,0), 5 CTAs running
GPGPU-Sim uArch: core: 13, cta: 5 initialized @(53600,0)
GPGPU-Sim uArch: Shader 7 finished CTA #4 (53635,0), 5 CTAs running
GPGPU-Sim uArch: core:  7, cta: 4 initialized @(53636,0)
GPGPU-Sim uArch: Shader 11 finished CTA #5 (53677,0), 5 CTAs running
GPGPU-Sim uArch: core: 11, cta: 5 initialized @(53678,0)
GPGPU-Sim uArch: Shader 0 finished CTA #5 (53783,0), 5 CTAs running
GPGPU-Sim uArch: core:  0, cta: 5 initialized @(53784,0)
GPGPU-Sim uArch: Shader 9 finished CTA #4 (53810,0), 5 CTAs running
GPGPU-Sim uArch: core:  9, cta: 4 initialized @(53811,0)
GPGPU-Sim uArch: Shader 5 finished CTA #5 (54235,0), 5 CTAs running
GPGPU-Sim uArch: core:  5, cta: 5 initialized @(54236,0)
GPGPU-Sim uArch: Shader 12 finished CTA #4 (54468,0), 5 CTAs running
GPGPU-Sim uArch: core: 12, cta: 4 initialized @(54469,0)
GPGPU-Sim uArch: cycles simulated: 54500  inst.: 2107488 (ipc=38.7) sim_rate=55460 (inst/sec) elapsed = 0:0:00:38 / Tue Apr 16 16:57:08 2019
GPGPU-Sim uArch: Shader 6 finished CTA #0 (54548,0), 5 CTAs running
GPGPU-Sim uArch: core:  6, cta: 0 initialized @(54549,0)
GPGPU-Sim uArch: Shader 8 finished CTA #3 (54716,0), 5 CTAs running
GPGPU-Sim uArch: core:  8, cta: 3 initialized @(54717,0)
GPGPU-Sim uArch: Shader 12 finished CTA #5 (54734,0), 5 CTAs running
GPGPU-Sim uArch: core: 12, cta: 5 initialized @(54735,0)
GPGPU-Sim uArch: Shader 11 finished CTA #0 (55024,0), 5 CTAs running
GPGPU-Sim uArch: core: 11, cta: 0 initialized @(55025,0)
GPGPU-Sim PTX: 2200000 instructions simulated : ctaid=(15,16,0) tid=(15,9,0)
GPGPU-Sim uArch: Shader 2 finished CTA #2 (55503,0), 5 CTAs running
GPGPU-Sim uArch: core:  2, cta: 2 initialized @(55504,0)
GPGPU-Sim uArch: Shader 10 finished CTA #5 (55581,0), 5 CTAs running
GPGPU-Sim uArch: core: 10, cta: 5 initialized @(55582,0)
GPGPU-Sim uArch: cycles simulated: 56000  inst.: 2153216 (ipc=38.5) sim_rate=55210 (inst/sec) elapsed = 0:0:00:39 / Tue Apr 16 16:57:09 2019
GPGPU-Sim uArch: Shader 5 finished CTA #0 (56629,0), 5 CTAs running
GPGPU-Sim uArch: core:  5, cta: 0 initialized @(56630,0)
GPGPU-Sim uArch: Shader 13 finished CTA #0 (56697,0), 5 CTAs running
GPGPU-Sim uArch: Shader 14 finished CTA #5 (56697,0), 5 CTAs running
GPGPU-Sim uArch: core: 13, cta: 0 initialized @(56698,0)
GPGPU-Sim uArch: core: 14, cta: 5 initialized @(56698,0)
GPGPU-Sim uArch: Shader 7 finished CTA #5 (57195,0), 5 CTAs running
GPGPU-Sim uArch: core:  7, cta: 5 initialized @(57196,0)
GPGPU-Sim uArch: Shader 2 finished CTA #4 (57367,0), 5 CTAs running
GPGPU-Sim uArch: core:  2, cta: 4 initialized @(57368,0)
GPGPU-Sim uArch: cycles simulated: 57500  inst.: 2190976 (ipc=38.1) sim_rate=54774 (inst/sec) elapsed = 0:0:00:40 / Tue Apr 16 16:57:10 2019
GPGPU-Sim uArch: Shader 3 finished CTA #5 (58445,0), 5 CTAs running
GPGPU-Sim uArch: core:  3, cta: 5 initialized @(58446,0)
GPGPU-Sim PTX: 2300000 instructions simulated : ctaid=(11,14,0) tid=(15,15,0)
GPGPU-Sim uArch: cycles simulated: 59000  inst.: 2232800 (ipc=37.8) sim_rate=54458 (inst/sec) elapsed = 0:0:00:41 / Tue Apr 16 16:57:11 2019
GPGPU-Sim uArch: Shader 9 finished CTA #5 (59738,0), 5 CTAs running
GPGPU-Sim uArch: core:  9, cta: 5 initialized @(59739,0)
GPGPU-Sim uArch: Shader 1 finished CTA #4 (59773,0), 5 CTAs running
GPGPU-Sim uArch: core:  1, cta: 4 initialized @(59774,0)
GPGPU-Sim uArch: Shader 13 finished CTA #1 (59928,0), 5 CTAs running
GPGPU-Sim uArch: core: 13, cta: 1 initialized @(59929,0)
GPGPU-Sim uArch: Shader 1 finished CTA #5 (59997,0), 5 CTAs running
GPGPU-Sim uArch: core:  1, cta: 5 initialized @(59998,0)
GPGPU-Sim uArch: Shader 3 finished CTA #0 (60020,0), 5 CTAs running
GPGPU-Sim uArch: core:  3, cta: 0 initialized @(60021,0)
GPGPU-Sim uArch: Shader 1 finished CTA #0 (60188,0), 5 CTAs running
GPGPU-Sim uArch: core:  1, cta: 0 initialized @(60189,0)
GPGPU-Sim uArch: Shader 2 finished CTA #3 (60324,0), 5 CTAs running
GPGPU-Sim uArch: core:  2, cta: 3 initialized @(60325,0)
GPGPU-Sim uArch: Shader 2 finished CTA #5 (60438,0), 5 CTAs running
GPGPU-Sim uArch: core:  2, cta: 5 initialized @(60439,0)
GPGPU-Sim uArch: cycles simulated: 60500  inst.: 2308896 (ipc=38.2) sim_rate=54973 (inst/sec) elapsed = 0:0:00:42 / Tue Apr 16 16:57:12 2019
GPGPU-Sim uArch: Shader 1 finished CTA #1 (60558,0), 5 CTAs running
GPGPU-Sim uArch: core:  1, cta: 1 initialized @(60559,0)
GPGPU-Sim uArch: Shader 11 finished CTA #1 (60639,0), 5 CTAs running
GPGPU-Sim uArch: core: 11, cta: 1 initialized @(60640,0)
GPGPU-Sim uArch: Shader 4 finished CTA #1 (61081,0), 5 CTAs running
GPGPU-Sim uArch: core:  4, cta: 1 initialized @(61082,0)
GPGPU-Sim uArch: Shader 8 finished CTA #4 (61144,0), 5 CTAs running
GPGPU-Sim uArch: core:  8, cta: 4 initialized @(61145,0)
GPGPU-Sim uArch: Shader 12 finished CTA #0 (61207,0), 5 CTAs running
GPGPU-Sim uArch: core: 12, cta: 0 initialized @(61208,0)
GPGPU-Sim PTX: 2400000 instructions simulated : ctaid=(4,18,0) tid=(15,5,0)
GPGPU-Sim uArch: Shader 7 finished CTA #0 (61409,0), 5 CTAs running
GPGPU-Sim uArch: core:  7, cta: 0 initialized @(61410,0)
GPGPU-Sim uArch: Shader 14 finished CTA #0 (61546,0), 5 CTAs running
GPGPU-Sim uArch: core: 14, cta: 0 initialized @(61547,0)
GPGPU-Sim uArch: cycles simulated: 62000  inst.: 2350304 (ipc=37.9) sim_rate=54658 (inst/sec) elapsed = 0:0:00:43 / Tue Apr 16 16:57:13 2019
GPGPU-Sim uArch: Shader 10 finished CTA #0 (62184,0), 5 CTAs running
GPGPU-Sim uArch: core: 10, cta: 0 initialized @(62185,0)
GPGPU-Sim uArch: Shader 6 finished CTA #1 (62422,0), 5 CTAs running
GPGPU-Sim uArch: core:  6, cta: 1 initialized @(62423,0)
GPGPU-Sim uArch: Shader 13 finished CTA #2 (62436,0), 5 CTAs running
GPGPU-Sim uArch: core: 13, cta: 2 initialized @(62437,0)
GPGPU-Sim uArch: Shader 5 finished CTA #1 (62590,0), 5 CTAs running
GPGPU-Sim uArch: core:  5, cta: 1 initialized @(62591,0)
GPGPU-Sim uArch: Shader 1 finished CTA #2 (62866,0), 5 CTAs running
GPGPU-Sim uArch: core:  1, cta: 2 initialized @(62867,0)
GPGPU-Sim uArch: Shader 3 finished CTA #1 (62910,0), 5 CTAs running
GPGPU-Sim uArch: core:  3, cta: 1 initialized @(62911,0)
GPGPU-Sim uArch: Shader 2 finished CTA #0 (63181,0), 5 CTAs running
GPGPU-Sim uArch: core:  2, cta: 0 initialized @(63182,0)
GPGPU-Sim PTX: 2500000 instructions simulated : ctaid=(8,16,0) tid=(15,1,0)
GPGPU-Sim uArch: Shader 7 finished CTA #1 (63355,0), 5 CTAs running
GPGPU-Sim uArch: core:  7, cta: 1 initialized @(63356,0)
GPGPU-Sim uArch: cycles simulated: 63500  inst.: 2431936 (ipc=38.3) sim_rate=55271 (inst/sec) elapsed = 0:0:00:44 / Tue Apr 16 16:57:14 2019
GPGPU-Sim uArch: Shader 12 finished CTA #1 (63660,0), 5 CTAs running
GPGPU-Sim uArch: core: 12, cta: 1 initialized @(63661,0)
GPGPU-Sim uArch: Shader 4 finished CTA #4 (63977,0), 5 CTAs running
GPGPU-Sim uArch: core:  4, cta: 4 initialized @(63978,0)
GPGPU-Sim uArch: Shader 14 finished CTA #1 (64205,0), 5 CTAs running
GPGPU-Sim uArch: core: 14, cta: 1 initialized @(64206,0)
GPGPU-Sim uArch: Shader 0 finished CTA #0 (64544,0), 5 CTAs running
GPGPU-Sim uArch: core:  0, cta: 0 initialized @(64545,0)
GPGPU-Sim uArch: Shader 11 finished CTA #2 (64735,0), 5 CTAs running
GPGPU-Sim uArch: core: 11, cta: 2 initialized @(64736,0)
GPGPU-Sim uArch: Shader 13 finished CTA #3 (64920,0), 5 CTAs running
GPGPU-Sim uArch: core: 13, cta: 3 initialized @(64921,0)
GPGPU-Sim uArch: cycles simulated: 65000  inst.: 2481312 (ipc=38.2) sim_rate=55140 (inst/sec) elapsed = 0:0:00:45 / Tue Apr 16 16:57:15 2019
GPGPU-Sim uArch: Shader 5 finished CTA #2 (65100,0), 5 CTAs running
GPGPU-Sim uArch: core:  5, cta: 2 initialized @(65101,0)
GPGPU-Sim uArch: Shader 8 finished CTA #5 (65474,0), 5 CTAs running
GPGPU-Sim uArch: core:  8, cta: 5 initialized @(65475,0)
GPGPU-Sim uArch: Shader 3 finished CTA #2 (65517,0), 5 CTAs running
GPGPU-Sim uArch: core:  3, cta: 2 initialized @(65518,0)
GPGPU-Sim PTX: 2600000 instructions simulated : ctaid=(2,19,0) tid=(15,1,0)
GPGPU-Sim uArch: cycles simulated: 66000  inst.: 2540448 (ipc=38.5) sim_rate=55227 (inst/sec) elapsed = 0:0:00:46 / Tue Apr 16 16:57:16 2019
GPGPU-Sim uArch: Shader 7 finished CTA #2 (66007,0), 5 CTAs running
GPGPU-Sim uArch: core:  7, cta: 2 initialized @(66008,0)
GPGPU-Sim uArch: Shader 1 finished CTA #3 (66079,0), 5 CTAs running
GPGPU-Sim uArch: core:  1, cta: 3 initialized @(66080,0)
GPGPU-Sim uArch: Shader 11 finished CTA #3 (66135,0), 5 CTAs running
GPGPU-Sim uArch: core: 11, cta: 3 initialized @(66136,0)
GPGPU-Sim uArch: Shader 0 finished CTA #1 (66284,0), 5 CTAs running
GPGPU-Sim uArch: core:  0, cta: 1 initialized @(66285,0)
GPGPU-Sim uArch: Shader 6 finished CTA #2 (66453,0), 5 CTAs running
GPGPU-Sim uArch: core:  6, cta: 2 initialized @(66454,0)
GPGPU-Sim uArch: Shader 10 finished CTA #1 (66458,0), 5 CTAs running
GPGPU-Sim uArch: core: 10, cta: 1 initialized @(66459,0)
GPGPU-Sim uArch: Shader 5 finished CTA #3 (66484,0), 5 CTAs running
GPGPU-Sim uArch: core:  5, cta: 3 initialized @(66485,0)
GPGPU-Sim uArch: Shader 4 finished CTA #2 (66523,0), 5 CTAs running
GPGPU-Sim uArch: core:  4, cta: 2 initialized @(66524,0)
GPGPU-Sim uArch: Shader 10 finished CTA #2 (67044,0), 5 CTAs running
GPGPU-Sim uArch: core: 10, cta: 2 initialized @(67045,0)
GPGPU-Sim uArch: Shader 6 finished CTA #3 (67068,0), 5 CTAs running
GPGPU-Sim uArch: core:  6, cta: 3 initialized @(67069,0)
GPGPU-Sim uArch: Shader 6 finished CTA #4 (67085,0), 5 CTAs running
GPGPU-Sim uArch: core:  6, cta: 4 initialized @(67086,0)
GPGPU-Sim uArch: Shader 14 finished CTA #2 (67272,0), 5 CTAs running
GPGPU-Sim uArch: core: 14, cta: 2 initialized @(67273,0)
GPGPU-Sim uArch: Shader 9 finished CTA #0 (67274,0), 5 CTAs running
GPGPU-Sim uArch: core:  9, cta: 0 initialized @(67275,0)
GPGPU-Sim PTX: 2700000 instructions simulated : ctaid=(3,20,0) tid=(15,1,0)
GPGPU-Sim uArch: Shader 6 finished CTA #5 (67304,0), 5 CTAs running
GPGPU-Sim uArch: core:  6, cta: 5 initialized @(67305,0)
GPGPU-Sim uArch: cycles simulated: 67500  inst.: 2629408 (ipc=39.0) sim_rate=55944 (inst/sec) elapsed = 0:0:00:47 / Tue Apr 16 16:57:17 2019
GPGPU-Sim uArch: Shader 12 finished CTA #2 (68499,0), 5 CTAs running
GPGPU-Sim uArch: core: 12, cta: 2 initialized @(68500,0)
GPGPU-Sim uArch: Shader 5 finished CTA #4 (68985,0), 5 CTAs running
GPGPU-Sim uArch: core:  5, cta: 4 initialized @(68986,0)
GPGPU-Sim uArch: cycles simulated: 69000  inst.: 2652320 (ipc=38.4) sim_rate=55256 (inst/sec) elapsed = 0:0:00:48 / Tue Apr 16 16:57:18 2019
GPGPU-Sim uArch: Shader 9 finished CTA #1 (69191,0), 5 CTAs running
GPGPU-Sim uArch: core:  9, cta: 1 initialized @(69192,0)
GPGPU-Sim uArch: Shader 9 finished CTA #2 (69561,0), 5 CTAs running
GPGPU-Sim uArch: core:  9, cta: 2 initialized @(69562,0)
GPGPU-Sim uArch: Shader 10 finished CTA #3 (69581,0), 5 CTAs running
GPGPU-Sim uArch: core: 10, cta: 3 initialized @(69582,0)
GPGPU-Sim uArch: Shader 9 finished CTA #3 (69791,0), 5 CTAs running
GPGPU-Sim uArch: core:  9, cta: 3 initialized @(69792,0)
GPGPU-Sim uArch: Shader 11 finished CTA #4 (70019,0), 5 CTAs running
GPGPU-Sim uArch: core: 11, cta: 4 initialized @(70020,0)
GPGPU-Sim uArch: Shader 3 finished CTA #3 (70049,0), 5 CTAs running
GPGPU-Sim uArch: core:  3, cta: 3 initialized @(70050,0)
GPGPU-Sim uArch: Shader 8 finished CTA #0 (70122,0), 5 CTAs running
GPGPU-Sim uArch: core:  8, cta: 0 initialized @(70123,0)
GPGPU-Sim uArch: Shader 14 finished CTA #3 (70330,0), 5 CTAs running
GPGPU-Sim uArch: core: 14, cta: 3 initialized @(70331,0)
GPGPU-Sim uArch: cycles simulated: 70500  inst.: 2708896 (ipc=38.4) sim_rate=55283 (inst/sec) elapsed = 0:0:00:49 / Tue Apr 16 16:57:19 2019
GPGPU-Sim uArch: Shader 7 finished CTA #4 (70572,0), 5 CTAs running
GPGPU-Sim uArch: core:  7, cta: 4 initialized @(70573,0)
GPGPU-Sim uArch: Shader 8 finished CTA #1 (70576,0), 5 CTAs running
GPGPU-Sim uArch: core:  8, cta: 1 initialized @(70577,0)
GPGPU-Sim PTX: 2800000 instructions simulated : ctaid=(1,21,0) tid=(15,9,0)
GPGPU-Sim uArch: Shader 0 finished CTA #2 (70720,0), 5 CTAs running
GPGPU-Sim uArch: Shader 14 finished CTA #4 (70720,0), 5 CTAs running
GPGPU-Sim uArch: core: 14, cta: 4 initialized @(70721,0)
GPGPU-Sim uArch: core:  0, cta: 2 initialized @(70721,0)
GPGPU-Sim uArch: Shader 12 finished CTA #3 (70943,0), 5 CTAs running
GPGPU-Sim uArch: core: 12, cta: 3 initialized @(70944,0)
GPGPU-Sim uArch: Shader 4 finished CTA #3 (71413,0), 5 CTAs running
GPGPU-Sim uArch: core:  4, cta: 3 initialized @(71414,0)
GPGPU-Sim uArch: Shader 2 finished CTA #1 (71861,0), 5 CTAs running
GPGPU-Sim uArch: core:  2, cta: 1 initialized @(71862,0)
GPGPU-Sim uArch: cycles simulated: 72000  inst.: 2784800 (ipc=38.7) sim_rate=55696 (inst/sec) elapsed = 0:0:00:50 / Tue Apr 16 16:57:20 2019
GPGPU-Sim uArch: Shader 0 finished CTA #3 (72125,0), 5 CTAs running
GPGPU-Sim uArch: core:  0, cta: 3 initialized @(72126,0)
GPGPU-Sim uArch: Shader 13 finished CTA #4 (72442,0), 5 CTAs running
GPGPU-Sim uArch: core: 13, cta: 4 initialized @(72443,0)
GPGPU-Sim uArch: Shader 1 finished CTA #4 (72535,0), 5 CTAs running
GPGPU-Sim uArch: core:  1, cta: 4 initialized @(72536,0)
GPGPU-Sim uArch: Shader 8 finished CTA #2 (72855,0), 5 CTAs running
GPGPU-Sim uArch: core:  8, cta: 2 initialized @(72856,0)
GPGPU-Sim uArch: Shader 11 finished CTA #5 (73288,0), 5 CTAs running
GPGPU-Sim uArch: core: 11, cta: 5 initialized @(73289,0)
GPGPU-Sim uArch: cycles simulated: 73500  inst.: 2814912 (ipc=38.3) sim_rate=55194 (inst/sec) elapsed = 0:0:00:51 / Tue Apr 16 16:57:21 2019
GPGPU-Sim uArch: Shader 9 finished CTA #4 (73607,0), 5 CTAs running
GPGPU-Sim uArch: core:  9, cta: 4 initialized @(73608,0)
GPGPU-Sim PTX: 2900000 instructions simulated : ctaid=(12,21,0) tid=(15,13,0)
GPGPU-Sim uArch: Shader 14 finished CTA #5 (73660,0), 5 CTAs running
GPGPU-Sim uArch: core: 14, cta: 5 initialized @(73661,0)
GPGPU-Sim uArch: Shader 10 finished CTA #4 (74142,0), 5 CTAs running
GPGPU-Sim uArch: core: 10, cta: 4 initialized @(74143,0)
GPGPU-Sim uArch: Shader 2 finished CTA #2 (74381,0), 5 CTAs running
GPGPU-Sim uArch: core:  2, cta: 2 initialized @(74382,0)
GPGPU-Sim uArch: Shader 6 finished CTA #0 (74446,0), 5 CTAs running
GPGPU-Sim uArch: core:  6, cta: 0 initialized @(74447,0)
GPGPU-Sim uArch: cycles simulated: 74500  inst.: 2841984 (ipc=38.1) sim_rate=54653 (inst/sec) elapsed = 0:0:00:52 / Tue Apr 16 16:57:22 2019
GPGPU-Sim uArch: Shader 7 finished CTA #3 (74568,0), 5 CTAs running
GPGPU-Sim uArch: core:  7, cta: 3 initialized @(74569,0)
GPGPU-Sim uArch: Shader 12 finished CTA #4 (74993,0), 5 CTAs running
GPGPU-Sim uArch: core: 12, cta: 4 initialized @(74994,0)
GPGPU-Sim uArch: Shader 13 finished CTA #5 (75091,0), 5 CTAs running
GPGPU-Sim uArch: core: 13, cta: 5 initialized @(75092,0)
GPGPU-Sim uArch: Shader 6 finished CTA #1 (75173,0), 5 CTAs running
GPGPU-Sim uArch: core:  6, cta: 1 initialized @(75174,0)
GPGPU-Sim uArch: Shader 3 finished CTA #4 (75243,0), 5 CTAs running
GPGPU-Sim uArch: core:  3, cta: 4 initialized @(75244,0)
GPGPU-Sim uArch: Shader 4 finished CTA #5 (75437,0), 5 CTAs running
GPGPU-Sim uArch: core:  4, cta: 5 initialized @(75438,0)
GPGPU-Sim uArch: Shader 9 finished CTA #5 (75458,0), 5 CTAs running
GPGPU-Sim uArch: core:  9, cta: 5 initialized @(75459,0)
GPGPU-Sim uArch: Shader 0 finished CTA #4 (75473,0), 5 CTAs running
GPGPU-Sim uArch: core:  0, cta: 4 initialized @(75474,0)
GPGPU-Sim PTX: 3000000 instructions simulated : ctaid=(5,22,0) tid=(15,9,0)
GPGPU-Sim uArch: Shader 4 finished CTA #0 (75692,0), 5 CTAs running
GPGPU-Sim uArch: core:  4, cta: 0 initialized @(75693,0)
GPGPU-Sim uArch: cycles simulated: 76000  inst.: 2918720 (ipc=38.4) sim_rate=55070 (inst/sec) elapsed = 0:0:00:53 / Tue Apr 16 16:57:23 2019
GPGPU-Sim uArch: Shader 14 finished CTA #0 (76384,0), 5 CTAs running
GPGPU-Sim uArch: core: 14, cta: 0 initialized @(76385,0)
GPGPU-Sim uArch: Shader 10 finished CTA #5 (76561,0), 5 CTAs running
GPGPU-Sim uArch: core: 10, cta: 5 initialized @(76562,0)
GPGPU-Sim uArch: Shader 9 finished CTA #0 (76729,0), 5 CTAs running
GPGPU-Sim uArch: core:  9, cta: 0 initialized @(76730,0)
GPGPU-Sim uArch: Shader 5 finished CTA #5 (76790,0), 5 CTAs running
GPGPU-Sim uArch: core:  5, cta: 5 initialized @(76791,0)
GPGPU-Sim uArch: Shader 9 finished CTA #1 (76836,0), 5 CTAs running
GPGPU-Sim uArch: core:  9, cta: 1 initialized @(76837,0)
GPGPU-Sim uArch: Shader 9 finished CTA #2 (76959,0), 5 CTAs running
GPGPU-Sim uArch: core:  9, cta: 2 initialized @(76960,0)
GPGPU-Sim uArch: Shader 7 finished CTA #5 (77071,0), 5 CTAs running
GPGPU-Sim uArch: core:  7, cta: 5 initialized @(77072,0)
GPGPU-Sim uArch: Shader 11 finished CTA #0 (77206,0), 5 CTAs running
GPGPU-Sim uArch: core: 11, cta: 0 initialized @(77207,0)
GPGPU-Sim uArch: Shader 12 finished CTA #5 (77207,0), 5 CTAs running
GPGPU-Sim uArch: core: 12, cta: 5 initialized @(77208,0)
GPGPU-Sim PTX: 3100000 instructions simulated : ctaid=(12,22,0) tid=(15,9,0)
GPGPU-Sim uArch: cycles simulated: 77500  inst.: 3020960 (ipc=39.0) sim_rate=55943 (inst/sec) elapsed = 0:0:00:54 / Tue Apr 16 16:57:24 2019
GPGPU-Sim uArch: Shader 9 finished CTA #3 (77607,0), 5 CTAs running
GPGPU-Sim uArch: core:  9, cta: 3 initialized @(77608,0)
GPGPU-Sim uArch: Shader 6 finished CTA #2 (77768,0), 5 CTAs running
GPGPU-Sim uArch: core:  6, cta: 2 initialized @(77769,0)
GPGPU-Sim uArch: Shader 9 finished CTA #4 (77846,0), 5 CTAs running
GPGPU-Sim uArch: core:  9, cta: 4 initialized @(77847,0)
GPGPU-Sim uArch: Shader 2 finished CTA #4 (77870,0), 5 CTAs running
GPGPU-Sim uArch: core:  2, cta: 4 initialized @(77871,0)
GPGPU-Sim uArch: Shader 3 finished CTA #5 (77904,0), 5 CTAs running
GPGPU-Sim uArch: core:  3, cta: 5 initialized @(77905,0)
GPGPU-Sim uArch: Shader 0 finished CTA #5 (77959,0), 5 CTAs running
GPGPU-Sim uArch: core:  0, cta: 5 initialized @(77960,0)
GPGPU-Sim uArch: Shader 4 finished CTA #1 (78301,0), 5 CTAs running
GPGPU-Sim uArch: core:  4, cta: 1 initialized @(78302,0)
GPGPU-Sim uArch: Shader 8 finished CTA #3 (78345,0), 5 CTAs running
GPGPU-Sim uArch: core:  8, cta: 3 initialized @(78346,0)
GPGPU-Sim uArch: cycles simulated: 78500  inst.: 3075232 (ipc=39.2) sim_rate=55913 (inst/sec) elapsed = 0:0:00:55 / Tue Apr 16 16:57:25 2019
GPGPU-Sim uArch: Shader 13 finished CTA #0 (78650,0), 5 CTAs running
GPGPU-Sim uArch: core: 13, cta: 0 initialized @(78651,0)
GPGPU-Sim uArch: Shader 10 finished CTA #0 (78903,0), 5 CTAs running
GPGPU-Sim uArch: core: 10, cta: 0 initialized @(78904,0)
GPGPU-Sim PTX: 3200000 instructions simulated : ctaid=(12,23,0) tid=(15,15,0)
GPGPU-Sim uArch: Shader 1 finished CTA #5 (79025,0), 5 CTAs running
GPGPU-Sim uArch: core:  1, cta: 5 initialized @(79026,0)
GPGPU-Sim uArch: Shader 5 finished CTA #0 (79182,0), 5 CTAs running
GPGPU-Sim uArch: core:  5, cta: 0 initialized @(79183,0)
GPGPU-Sim uArch: Shader 9 finished CTA #5 (79388,0), 5 CTAs running
GPGPU-Sim uArch: core:  9, cta: 5 initialized @(79389,0)
GPGPU-Sim uArch: Shader 12 finished CTA #0 (79443,0), 5 CTAs running
GPGPU-Sim uArch: core: 12, cta: 0 initialized @(79444,0)
GPGPU-Sim uArch: cycles simulated: 79500  inst.: 3153504 (ipc=39.7) sim_rate=56312 (inst/sec) elapsed = 0:0:00:56 / Tue Apr 16 16:57:26 2019
GPGPU-Sim uArch: Shader 3 finished CTA #0 (79774,0), 5 CTAs running
GPGPU-Sim uArch: core:  3, cta: 0 initialized @(79775,0)
GPGPU-Sim uArch: Shader 10 finished CTA #1 (79804,0), 5 CTAs running
GPGPU-Sim uArch: core: 10, cta: 1 initialized @(79805,0)
GPGPU-Sim uArch: Shader 0 finished CTA #0 (79827,0), 5 CTAs running
GPGPU-Sim uArch: core:  0, cta: 0 initialized @(79828,0)
GPGPU-Sim uArch: Shader 3 finished CTA #1 (80120,0), 5 CTAs running
GPGPU-Sim uArch: core:  3, cta: 1 initialized @(80121,0)
GPGPU-Sim uArch: Shader 3 finished CTA #2 (80605,0), 5 CTAs running
GPGPU-Sim uArch: core:  3, cta: 2 initialized @(80606,0)
GPGPU-Sim uArch: Shader 0 finished CTA #1 (80774,0), 5 CTAs running
GPGPU-Sim uArch: core:  0, cta: 1 initialized @(80775,0)
GPGPU-Sim uArch: Shader 4 finished CTA #4 (80860,0), 5 CTAs running
GPGPU-Sim uArch: core:  4, cta: 4 initialized @(80861,0)
GPGPU-Sim uArch: cycles simulated: 81000  inst.: 3190080 (ipc=39.4) sim_rate=55966 (inst/sec) elapsed = 0:0:00:57 / Tue Apr 16 16:57:27 2019
GPGPU-Sim uArch: Shader 14 finished CTA #1 (81271,0), 5 CTAs running
GPGPU-Sim uArch: core: 14, cta: 1 initialized @(81272,0)
GPGPU-Sim PTX: 3300000 instructions simulated : ctaid=(2,22,0) tid=(15,7,0)
GPGPU-Sim uArch: Shader 1 finished CTA #0 (81545,0), 5 CTAs running
GPGPU-Sim uArch: core:  1, cta: 0 initialized @(81546,0)
GPGPU-Sim uArch: Shader 1 finished CTA #1 (81954,0), 5 CTAs running
GPGPU-Sim uArch: core:  1, cta: 1 initialized @(81955,0)
GPGPU-Sim uArch: Shader 8 finished CTA #4 (82032,0), 5 CTAs running
GPGPU-Sim uArch: core:  8, cta: 4 initialized @(82033,0)
GPGPU-Sim uArch: Shader 7 finished CTA #0 (82243,0), 5 CTAs running
GPGPU-Sim uArch: core:  7, cta: 0 initialized @(82244,0)
GPGPU-Sim uArch: Shader 2 finished CTA #3 (82395,0), 5 CTAs running
GPGPU-Sim uArch: core:  2, cta: 3 initialized @(82396,0)
GPGPU-Sim uArch: Shader 1 finished CTA #2 (82422,0), 5 CTAs running
GPGPU-Sim uArch: core:  1, cta: 2 initialized @(82423,0)
GPGPU-Sim uArch: Shader 7 finished CTA #1 (82467,0), 5 CTAs running
GPGPU-Sim uArch: core:  7, cta: 1 initialized @(82468,0)
GPGPU-Sim uArch: cycles simulated: 82500  inst.: 3258752 (ipc=39.5) sim_rate=56185 (inst/sec) elapsed = 0:0:00:58 / Tue Apr 16 16:57:28 2019
GPGPU-Sim uArch: Shader 11 finished CTA #1 (82569,0), 5 CTAs running
GPGPU-Sim uArch: core: 11, cta: 1 initialized @(82570,0)
GPGPU-Sim uArch: Shader 13 finished CTA #1 (83030,0), 5 CTAs running
GPGPU-Sim uArch: core: 13, cta: 1 initialized @(83031,0)
GPGPU-Sim uArch: Shader 12 finished CTA #1 (83054,0), 5 CTAs running
GPGPU-Sim uArch: core: 12, cta: 1 initialized @(83055,0)
GPGPU-Sim uArch: Shader 2 finished CTA #5 (83250,0), 5 CTAs running
GPGPU-Sim uArch: core:  2, cta: 5 initialized @(83251,0)
GPGPU-Sim uArch: cycles simulated: 84000  inst.: 3287808 (ipc=39.1) sim_rate=55725 (inst/sec) elapsed = 0:0:00:59 / Tue Apr 16 16:57:29 2019
GPGPU-Sim uArch: Shader 8 finished CTA #5 (84830,0), 5 CTAs running
GPGPU-Sim uArch: core:  8, cta: 5 initialized @(84831,0)
GPGPU-Sim PTX: 3400000 instructions simulated : ctaid=(11,21,0) tid=(15,7,0)
GPGPU-Sim uArch: Shader 5 finished CTA #1 (85427,0), 5 CTAs running
GPGPU-Sim uArch: core:  5, cta: 1 initialized @(85428,0)
GPGPU-Sim uArch: cycles simulated: 85500  inst.: 3312384 (ipc=38.7) sim_rate=55206 (inst/sec) elapsed = 0:0:01:00 / Tue Apr 16 16:57:30 2019
GPGPU-Sim uArch: Shader 7 finished CTA #2 (85566,0), 5 CTAs running
GPGPU-Sim uArch: core:  7, cta: 2 initialized @(85567,0)
GPGPU-Sim uArch: Shader 10 finished CTA #2 (85633,0), 5 CTAs running
GPGPU-Sim uArch: core: 10, cta: 2 initialized @(85634,0)
GPGPU-Sim uArch: Shader 11 finished CTA #2 (85719,0), 5 CTAs running
GPGPU-Sim uArch: core: 11, cta: 2 initialized @(85720,0)
GPGPU-Sim uArch: Shader 1 finished CTA #3 (85810,0), 5 CTAs running
GPGPU-Sim uArch: core:  1, cta: 3 initialized @(85811,0)
GPGPU-Sim uArch: Shader 5 finished CTA #2 (85882,0), 5 CTAs running
GPGPU-Sim uArch: core:  5, cta: 2 initialized @(85883,0)
GPGPU-Sim uArch: Shader 13 finished CTA #2 (85997,0), 5 CTAs running
GPGPU-Sim uArch: core: 13, cta: 2 initialized @(85998,0)
GPGPU-Sim uArch: Shader 13 finished CTA #3 (86187,0), 5 CTAs running
GPGPU-Sim uArch: core: 13, cta: 3 initialized @(86188,0)
GPGPU-Sim uArch: Shader 3 finished CTA #3 (86396,0), 5 CTAs running
GPGPU-Sim uArch: core:  3, cta: 3 initialized @(86397,0)
GPGPU-Sim uArch: cycles simulated: 86500  inst.: 3364288 (ipc=38.9) sim_rate=55152 (inst/sec) elapsed = 0:0:01:01 / Tue Apr 16 16:57:31 2019
GPGPU-Sim uArch: Shader 11 finished CTA #3 (86646,0), 5 CTAs running
GPGPU-Sim uArch: core: 11, cta: 3 initialized @(86647,0)
GPGPU-Sim uArch: Shader 14 finished CTA #2 (86823,0), 5 CTAs running
GPGPU-Sim uArch: core: 14, cta: 2 initialized @(86824,0)
GPGPU-Sim uArch: Shader 5 finished CTA #3 (86835,0), 5 CTAs running
GPGPU-Sim uArch: core:  5, cta: 3 initialized @(86836,0)
GPGPU-Sim uArch: Shader 0 finished CTA #2 (86868,0), 5 CTAs running
GPGPU-Sim uArch: core:  0, cta: 2 initialized @(86869,0)
GPGPU-Sim PTX: 3500000 instructions simulated : ctaid=(14,25,0) tid=(15,15,0)
GPGPU-Sim uArch: Shader 8 finished CTA #0 (87811,0), 5 CTAs running
GPGPU-Sim uArch: core:  8, cta: 0 initialized @(87812,0)
GPGPU-Sim uArch: cycles simulated: 88000  inst.: 3452960 (ipc=39.2) sim_rate=55692 (inst/sec) elapsed = 0:0:01:02 / Tue Apr 16 16:57:32 2019
GPGPU-Sim uArch: Shader 12 finished CTA #2 (88205,0), 5 CTAs running
GPGPU-Sim uArch: core: 12, cta: 2 initialized @(88206,0)
GPGPU-Sim uArch: Shader 2 finished CTA #0 (88328,0), 5 CTAs running
GPGPU-Sim uArch: core:  2, cta: 0 initialized @(88329,0)
GPGPU-Sim uArch: Shader 1 finished CTA #4 (88340,0), 5 CTAs running
GPGPU-Sim uArch: core:  1, cta: 4 initialized @(88341,0)
GPGPU-Sim uArch: Shader 7 finished CTA #4 (88674,0), 5 CTAs running
GPGPU-Sim uArch: core:  7, cta: 4 initialized @(88675,0)
GPGPU-Sim uArch: Shader 4 finished CTA #2 (88704,0), 5 CTAs running
GPGPU-Sim uArch: core:  4, cta: 2 initialized @(88705,0)
GPGPU-Sim uArch: Shader 13 finished CTA #4 (89011,0), 5 CTAs running
GPGPU-Sim uArch: core: 13, cta: 4 initialized @(89012,0)
GPGPU-Sim PTX: 3600000 instructions simulated : ctaid=(6,26,0) tid=(15,1,0)
[...]
icnt2sh_lat_table:0 	0 	0 	97514 	106165 	46261 	6520 	67 	0 	0 	0 	494 	1108 	2677 	9634 	18905 	40950 	77965 	160563 	278558 	588794 	0 	0 	0 	
mf_lat_pw_table:0 	0 	0 	0 	0 	0 	0 	1 	83 	3913 	188 	0 	0 	0 	0 	0 	0 	0 	0 	0 	0 	0 	0 	0 	0 	0 	0 	0 	0 	0 	0 	0 	
maximum concurrent accesses to same row:
dram[0]:        32        32        32        32        32        32        32        32        32        32        32        31        32        32        32        32 
dram[1]:        32        32        32        31        32        32        32        32        32        32        32        32        32        32        32        32 
dram[2]:        32        32        32        32        32        32        32        32        32        32        32        32        32        32        32        32 
dram[3]:        32        32        28        32        32        32        32        32        32        32        32        32        32        32        32        32 
dram[4]:        32        32        32        32        32        32        32        32        32        32        32        32        32        32        32        32 
dram[5]:        32        32        32        31        32        32        32        32        32        32        32        32        32        32        32        32 
maximum service time to same row:
dram[0]:     25728     28196     26724     28187     27385     33107     28093     33067     27366     26487     27231     26184     28317     29134     28278     29125 
dram[1]:     23861     44897     24090     44888     26730     48011     25407     49105     25917     36586     25808     25962     24479     34000     27478     44906 
dram[2]:     27605     26168     28197     26763     33119     26846     33063     27472     26426     27367     26013     28300     29137     28304     29128     25829 
dram[3]:     44900     24021     44891     24694     48018     28100     49108     25416     43505     26122     26700     25983     33972     24470     44909     27478 
dram[4]:     26174     28195     26817     28191     26776     33110     27472     33056     27231     27231     26236     26526     28340     29131     25830     29122 
dram[5]:     25048     44894     28973     44885     27372     49139     25059     49101     25058     43498     25082     25944     25175     33974     27469     44903 
average row accesses per activate:
dram[0]:  2.174821  2.197851  2.166903  2.179440  2.172388  2.196313  2.182976  2.204764  2.155605  2.171685  2.190823  2.189536  2.210587  2.196923  2.196225  2.201684 
dram[1]:  2.199104  2.183710  2.198121  2.177210  2.184727  2.176005  2.196826  2.200192  2.184141  2.194505  2.181070  2.198520  2.204821  2.226658  2.207278  2.214360 
dram[2]:  2.195368  2.178862  2.184664  2.157751  2.192976  2.169291  2.202744  2.188031  2.171124  2.160703  2.193109  2.194271  2.195000  2.200792  2.199751  2.206832 
dram[3]:  2.167655  2.193711  2.180603  2.194255  2.182921  2.187394  2.206061  2.197505  2.193859  2.200171  2.199880  2.189095  2.225445  2.211810  2.204579  2.218894 
dram[4]:  2.173987  2.189832  2.156689  2.176487  2.174455  2.189948  2.180421  2.203263  2.145076  2.176582  2.182173  2.201251  2.203584  2.199770  2.195709  2.201270 
dram[5]:  2.183936  2.181801  2.205133  2.177390  2.201256  2.183072  2.197316  2.205891  2.190094  2.199675  2.182208  2.213168  2.203193  2.220452  2.219990  2.200792 
average row locality = 2149067/980871 = 2.190978
number of total memory accesses made:
dram[0]:         0         0         0         0         0         0         0         0         0         0         0         0         0         0         0         0 
dram[1]:         0         0         0         0         0         0         0         0         0         0         0         0         0         0         0         0 
dram[2]:         0         0         0         0         0         0         0         0         0         0         0         0         0         0         0         0 
dram[3]:         0         0         0         0         0         0         0         0         0         0         0         0         0         0         0         0 
dram[4]:         0         0         0         0         0         0         0         0         0         0         0         0         0         0         0         0 
dram[5]:         0         0         0         0         0         0         0         0         0         0         0         0         0         0         0         0 
total accesses: 0
min_bank_accesses = 0!
min_chip_accesses = 0!
number of total read accesses:
dram[0]:     10806     10650     10703     10566     10844     10721     10790     10735     10895     10799     10412     10330     10043      9991     10056     10024 
dram[1]:     10789     10810     10698     10670     10859     10840     10879     10741     10944     10816     10429     10255     10035      9976     10056      9991 
dram[2]:     10633     10819     10528     10710     10705     10885     10731     10755     10758     10900     10325     10343      9966     10025     10014     10066 
dram[3]:     10764     10825     10669     10670     10779     10893     10762     10869     10824     10969     10374     10377      9931     10022      9990     10066 
dram[4]:     10790     10623     10705     10543     10813     10701     10797     10738     10873     10812     10350     10292     10026      9969     10055      9993 
dram[5]:     10784     10783     10659     10645     10858     10815     10872     10756     10950     10823     10401     10311     10024      9948     10079     10009 
total reads: 1010897
bank skew: 10969/9931 = 1.10
chip skew: 168788/168080 = 1.00
number of total write accesses:
dram[0]:     12221     12256     12173     12183     12255     12270     12188     12221     12198     12210     11551     11515     11130     11139     11120     11154 
dram[1]:     12273     12274     12235     12182     12286     12267     12236     12196     12221     12189     11554     11440     11096     11106     11114     11134 
dram[2]:     12212     12229     12151     12160     12273     12257     12226     12169     12219     12226     11571     11490     11106     11085     11163     11124 
dram[3]:     12263     12266     12175     12170     12253     12289     12170     12207     12183     12223     11550     11503     11095     11103     11099     11120 
dram[4]:     12226     12206     12171     12173     12221     12219     12189     12220     12193     12201     11487     11529     11124     11118     11127     11148 
dram[5]:     12274     12259     12195     12198     12286     12295     12213     12161     12219     12201     11504     11471     11087     11093     11133     11112 
total reads: 1138170
bank skew: 12295/11085 = 1.11
chip skew: 189803/189552 = 1.00
average mf latency per bank:
dram[0]:        477       470       483       476       480       472       486       476       485       478       482       471       480       476       481       478
dram[1]:        479       474       473       474       476       476       481       483       475       475       482       483       477       477       475       478
dram[2]:        468       481       473       486       471       481       472       491       474       487       469       483       476       485       477       486
dram[3]:        475       478       473       474       473       477       478       482       470       474       476       479       475       475       477       476
dram[4]:        478       469       484       476       481       473       486       472       483       474       480       471       479       476       482       477
dram[5]:        476       473       474       472       476       474       482       479       474       471       478       475       475       472       474       476
maximum mf latency per bank:
dram[0]:       1787      1875      1762      1747      1740      1792      1772      1893      1859      1810      1786      1809      1849      1744      1768      1859
dram[1]:       1724      1849      1767      1716      1765      1750      1724      1721      2051      1774      1709      1820      1736      1779      1781      1677
dram[2]:       1913      1800      1896      2001      1911      1832      1872      1858      1916      1871      1859      1806      1918      1818      1793      1809
dram[3]:       1661      1655      1628      1646      1681      1810      1805      1689      1852      1703      1673      1698      1672      1717      1617      1651
dram[4]:       1782      1902      1858      1755      1838      1830      1751      1759      1961      1798      1833      1883      1876      1694      1822      1743
dram[5]:       1717      1759      1734      1748      1707      1711      1690      1820      1883      1811      1773      1992      1790      1823      1741      1710

Number of Memory Banks Accessed per Memory Operation per Warp (from 0):
0	0	0	0	0	0	0	0	0	0	0	0	0	0	0	0	0	0	0	0	0	0	0	0	0	0	0	0	0	0	0	0	0	0	0	0	0	0	0	0	0	0	0	0	0	0	0	0	0	0	0	0	0	0	0	0	0	0	0	0	0	0	0	0	0	0	0	0	0	0	0	0	0	0	0	0	0	0	0	0	0	0	0	0	0	0	0	0	0	0	0	0	0	0	0	0	
Average # of Memory Banks Accessed per Memory Operation per Warp=-nan

position of mrq chosen
0	0	0	0	0	0	0	0	0	0	0	0	0	0	0	0	

average position of mrq chosen = -nan
Memory Partition 0: 
Cache L2_bank_000:
MSHR contents

Cache L2_bank_001:
MSHR contents

In Dram Latency Queue (total = 0): 
DRAM[0]: 16 bks, busW=4 BL=8 CL=12, tRRD=2 tCCD=6, tRCD=12 tRAS=28 tRP=12 tRC=40
n_cmd=2765184 n_nop=1900136 n_act=163812 n_pre=163796 n_req=358149 n_rd=336730 n_write=200710 bw_util=0.3887
n_activity=2304530 dram_eff=0.4664
bk0: 21612a 2057295i bk1: 21300a 2054599i bk2: 21406a 2037633i bk3: 21132a 2038216i bk4: 21688a 2026766i bk5: 21442a 2030648i bk6: 21580a 2019011i bk7: 21470a 2015557i bk8: 21790a 2047008i bk9: 21598a 2044359i bk10: 20824a 2074394i bk11: 20660a 2074216i bk12: 20086a 2086252i bk13: 19982a 2079325i bk14: 20112a 2078872i bk15: 20048a 2074070i 
dram_util_bins: 0 0 0 0 0 0 0 0 0 0
dram_eff_bins: 0 0 0 0 0 0 0 0 0 0
mrqq: max=16 avg=6.95981
Memory Partition 1: 
Cache L2_bank_002:
MSHR contents

Cache L2_bank_003:
MSHR contents

In Dram Latency Queue (total = 0): 
DRAM[1]: 16 bks, busW=4 BL=8 CL=12, tRRD=2 tCCD=6, tRCD=12 tRAS=28 tRP=12 tRC=40
n_cmd=2765184 n_nop=1900302 n_act=163366 n_pre=163350 n_req=358591 n_rd=337576 n_write=200590 bw_util=0.3892
n_activity=2286080 dram_eff=0.4708
bk0: 21578a 2048962i bk1: 21620a 2049362i bk2: 21396a 2038200i bk3: 21340a 2036128i bk4: 21718a 2018172i bk5: 21680a 2016225i bk6: 21758a 2009124i bk7: 21482a 2008328i bk8: 21888a 2048189i bk9: 21632a 2046233i bk10: 20858a 2064296i bk11: 20510a 2071551i bk12: 20070a 2082261i bk13: 19952a 2082064i bk14: 20112a 2077109i bk15: 19982a 2075409i 
dram_util_bins: 0 0 0 0 0 0 0 0 0 0
dram_eff_bins: 0 0 0 0 0 0 0 0 0 0
mrqq: max=16 avg=7.03232
Memory Partition 2: 
Cache L2_bank_004:
MSHR contents

Cache L2_bank_005:
MSHR contents

In Dram Latency Queue (total = 0): 
DRAM[2]: 16 bks, busW=4 BL=8 CL=12, tRRD=2 tCCD=6, tRCD=12 tRAS=28 tRP=12 tRC=40
n_cmd=2765184 n_nop=1900941 n_act=163650 n_pre=163634 n_req=357824 n_rd=336326 n_write=200633 bw_util=0.3884
n_activity=2301440 dram_eff=0.4666
bk0: 21266a 2061259i bk1: 21638a 2055098i bk2: 21056a 2044477i bk3: 21420a 2036592i bk4: 21410a 2029670i bk5: 21770a 2022484i bk6: 21462a 2016406i bk7: 21510a 2018516i bk8: 21516a 2049289i bk9: 21800a 2045264i bk10: 20650a 2071590i bk11: 20686a 2078448i bk12: 19932a 2084995i bk13: 20050a 2086573i bk14: 20028a 2079000i bk15: 20132a 2078033i 
dram_util_bins: 0 0 0 0 0 0 0 0 0 0
dram_eff_bins: 0 0 0 0 0 0 0 0 0 0
mrqq: max=16 avg=6.94806
Memory Partition 3: 
Cache L2_bank_006:
MSHR contents

Cache L2_bank_007:
MSHR contents

In Dram Latency Queue (total = 0): 
DRAM[3]: 16 bks, busW=4 BL=8 CL=12, tRRD=2 tCCD=6, tRCD=12 tRAS=28 tRP=12 tRC=40
n_cmd=2765184 n_nop=1900799 n_act=163181 n_pre=163165 n_req=358453 n_rd=337568 n_write=200471 bw_util=0.3892
n_activity=2284960 dram_eff=0.4709
bk0: 21528a 2049123i bk1: 21650a 2045492i bk2: 21338a 2038426i bk3: 21340a 2038235i bk4: 21558a 2022389i bk5: 21786a 2019231i bk6: 21524a 2014139i bk7: 21738a 2007930i bk8: 21648a 2048115i bk9: 21938a 2046805i bk10: 20748a 2066560i bk11: 20754a 2071014i bk12: 19862a 2086009i bk13: 20044a 2083094i bk14: 19980a 2078185i bk15: 20132a 2076552i 
dram_util_bins: 0 0 0 0 0 0 0 0 0 0
dram_eff_bins: 0 0 0 0 0 0 0 0 0 0
mrqq: max=16 avg=7.01302
Memory Partition 4: 
Cache L2_bank_008:
MSHR contents

Cache L2_bank_009:
MSHR contents

In Dram Latency Queue (total = 0): 
DRAM[4]: 16 bks, busW=4 BL=8 CL=12, tRRD=2 tCCD=6, tRCD=12 tRAS=28 tRP=12 tRC=40
n_cmd=2765184 n_nop=1901046 n_act=163758 n_pre=163742 n_req=357632 n_rd=336160 n_write=200478 bw_util=0.3881
n_activity=2298829 dram_eff=0.4669
bk0: 21580a 2057871i bk1: 21246a 2059137i bk2: 21410a 2039029i bk3: 21086a 2038090i bk4: 21626a 2027977i bk5: 21402a 2025855i bk6: 21594a 2020623i bk7: 21476a 2011859i bk8: 21746a 2049341i bk9: 21624a 2045824i bk10: 20700a 2077112i bk11: 20584a 2076906i bk12: 20052a 2086154i bk13: 19938a 2079964i bk14: 20110a 2079996i bk15: 19986a 2074565i 
dram_util_bins: 0 0 0 0 0 0 0 0 0 0
dram_eff_bins: 0 0 0 0 0 0 0 0 0 0
mrqq: max=16 avg=6.96709
Memory Partition 5: 
Cache L2_bank_010:
MSHR contents

Cache L2_bank_011:
MSHR contents
MSHR: tag=0x80747f80, atomic=0 1 entries : 0x7ff9196b3ba0 :  mf: uid=34385972, sid06:w08, part=5, addr=0x80747fc0, load , size=64, unknown  status = IN_PARTITION_DRAM (2094832), 
MSHR: tag=0x8075ff80, atomic=0 1 entries : 0x7ff91886ca90 :  mf: uid=34385980, sid06:w11, part=5, addr=0x8075ffc0, load , size=64, unknown  status = IN_PARTITION_DRAM (2094837), 

In Dram Latency Queue (total = 0): 
DRAM[5]: 16 bks, busW=4 BL=8 CL=12, tRRD=2 tCCD=6, tRCD=12 tRAS=28 tRP=12 tRC=40
n_cmd=2765184 n_nop=1901064 n_act=163105 n_pre=163089 n_req=358418 n_rd=337434 n_write=200492 bw_util=0.3891
n_activity=2285182 dram_eff=0.4708
bk0: 21568a 2052186i bk1: 21566a 2045738i bk2: 21318a 2040183i bk3: 21290a 2039023i bk4: 21716a 2020297i bk5: 21630a 2014898i bk6: 21744a 2009759i bk7: 21512a 2011586i bk8: 21900a 2049431i bk9: 21646a 2048116i bk10: 20802a 2066430i bk11: 20622a 2068837i bk12: 20048a 2082521i bk13: 19896a 2085949i bk14: 20158a 2075828i bk15: 20018a 2075032i 
dram_util_bins: 0 0 0 0 0 0 0 0 0 0
dram_eff_bins: 0 0 0 0 0 0 0 0 0 0
mrqq: max=16 avg=7.01691

========= L2 cache stats =========
L2_cache_bank[0]: Access = 119788, Miss = 84549, Miss_rate = 0.706, Pending_hits = 17187, Reservation_fails = 441602
L2_cache_bank[1]: Access = 119615, Miss = 83816, Miss_rate = 0.701, Pending_hits = 18314, Reservation_fails = 430521
L2_cache_bank[2]: Access = 119762, Miss = 84689, Miss_rate = 0.707, Pending_hits = 17471, Reservation_fails = 429837
L2_cache_bank[3]: Access = 119663, Miss = 84099, Miss_rate = 0.703, Pending_hits = 17667, Reservation_fails = 426891
L2_cache_bank[4]: Access = 119728, Miss = 83660, Miss_rate = 0.699, Pending_hits = 18243, Reservation_fails = 427328
L2_cache_bank[5]: Access = 119676, Miss = 84503, Miss_rate = 0.706, Pending_hits = 17235, Reservation_fails = 441820
L2_cache_bank[6]: Access = 119727, Miss = 84093, Miss_rate = 0.702, Pending_hits = 17719, Reservation_fails = 422298
L2_cache_bank[7]: Access = 119677, Miss = 84691, Miss_rate = 0.708, Pending_hits = 17343, Reservation_fails = 430127
L2_cache_bank[8]: Access = 119669, Miss = 84409, Miss_rate = 0.705, Pending_hits = 17282, Reservation_fails = 439731
L2_cache_bank[9]: Access = 119631, Miss = 83671, Miss_rate = 0.699, Pending_hits = 18246, Reservation_fails = 426508
L2_cache_bank[10]: Access = 119647, Miss = 84627, Miss_rate = 0.707, Pending_hits = 17375, Reservation_fails = 430656
L2_cache_bank[11]: Access = 119682, Miss = 84090, Miss_rate = 0.703, Pending_hits = 17792, Reservation_fails = 422420
L2_total_cache_accesses = 1436265
L2_total_cache_misses = 1010897
L2_total_cache_miss_rate = 0.7038
L2_total_cache_pending_hits = 211874
L2_total_cache_reservation_fails = 5169739
L2_total_cache_breakdown:
	L2_cache_stats_breakdown[GLOBAL_ACC_R][HIT] = 106735
	L2_cache_stats_breakdown[GLOBAL_ACC_R][HIT_RESERVED] = 16227
	L2_cache_stats_breakdown[GLOBAL_ACC_R][MISS] = 133550
	L2_cache_stats_breakdown[GLOBAL_ACC_R][RESERVATION_FAIL] = 33003
	L2_cache_stats_breakdown[CONST_ACC_R][HIT] = 11
	L2_cache_stats_breakdown[CONST_ACC_R][HIT_RESERVED] = 3
	L2_cache_stats_breakdown[CONST_ACC_R][MISS] = 1
	L2_cache_stats_breakdown[CONST_ACC_R][RESERVATION_FAIL] = 93
	L2_cache_stats_breakdown[GLOBAL_ACC_W][HIT] = 106682
	L2_cache_stats_breakdown[GLOBAL_ACC_W][HIT_RESERVED] = 195626
	L2_cache_stats_breakdown[GLOBAL_ACC_W][MISS] = 877340
	L2_cache_stats_breakdown[GLOBAL_ACC_W][RESERVATION_FAIL] = 5136016
	L2_cache_stats_breakdown[INST_ACC_R][HIT] = 66
	L2_cache_stats_breakdown[INST_ACC_R][HIT_RESERVED] = 18
	L2_cache_stats_breakdown[INST_ACC_R][MISS] = 6
	L2_cache_stats_breakdown[INST_ACC_R][RESERVATION_FAIL] = 627
L2_cache_data_port_util = 0.022
L2_cache_fill_port_util = 0.161

icnt_total_pkts_mem_to_simt=2462703
icnt_total_pkts_simt_to_mem=2746985
LD_mem_lat_dist  0 0 0 0 0 0 0 0 0 0 0 0 0 0 0 0 0 0 0 0 0 0 0 0 0 0 0
ST_mem_lat_dist  0 0 0 0 0 0 0 0 0 0 0 0 0 0 0 0 0 0 0 0 0 0 0 0 0 0 0
----------------------------Interconnect-DETAILS--------------------------------
Class 0:
Packet latency average = 76.634
	minimum = 6
	maximum = 1033
Network latency average = 46.213
	minimum = 6
	maximum = 789
Slowest packet = 2614120
Flit latency average = 37.8991
	minimum = 6
	maximum = 789
Slowest flit = 4713214
Fragmentation average = 0.396353
	minimum = 0
	maximum = 451
Injected packet rate average = 0.0588712
	minimum = 0.0496542 (at node 8)
	maximum = 0.0663747 (at node 21)
Accepted packet rate average = 0.0588712
	minimum = 0.0496542 (at node 8)
	maximum = 0.0663747 (at node 21)
Injected flit rate average = 0.146957
	minimum = 0.0996994 (at node 8)
	maximum = 0.198452 (at node 26)
Accepted flit rate average= 0.146957
	minimum = 0.132859 (at node 16)
	maximum = 0.172324 (at node 9)
Injected packet length average = 2.49625
Accepted packet length average = 2.49625
Total in-flight flits = 0 (0 measured)
====== Overall Traffic Statistics ======
====== Traffic class 0 ======
Packet latency average = 90.6823 (4 samples)
	minimum = 6 (4 samples)
	maximum = 1056 (4 samples)
Network latency average = 51.8069 (4 samples)
	minimum = 6 (4 samples)
	maximum = 899.25 (4 samples)
Flit latency average = 50.5768 (4 samples)
	minimum = 6 (4 samples)
	maximum = 898.75 (4 samples)
Fragmentation average = 0.2914 (4 samples)
	minimum = 0 (4 samples)
	maximum = 497.75 (4 samples)
Injected packet rate average = 0.0538789 (4 samples)
	minimum = 0.0462722 (4 samples)
	maximum = 0.0607308 (4 samples)
Accepted packet rate average = 0.0538789 (4 samples)
	minimum = 0.0462722 (4 samples)
	maximum = 0.0607308 (4 samples)
Injected flit rate average = 0.113917 (4 samples)
	minimum = 0.0893389 (4 samples)
	maximum = 0.142161 (4 samples)
Accepted flit rate average = 0.113917 (4 samples)
	minimum = 0.096725 (4 samples)
	maximum = 0.138149 (4 samples)
Injected packet size average = 2.11432 (4 samples)
Accepted packet size average = 2.11432 (4 samples)
Hops average = 1 (4 samples)
----------------------------END-of-Interconnect-DETAILS-------------------------


gpgpu_simulation_time = 0 days, 0 hrs, 29 min, 25 sec (1765 sec)
gpgpu_simulation_rate = 109313 (inst/sec)
gpgpu_simulation_rate = 1186 (cycle/sec)
GPGPU-Sim: synchronize waiting for inactive GPU simulation
GPGPU-Sim API: Stream Manager State
GPGPU-Sim: detected inactive GPU simulation thread
Naive transpose average time:     621314.375 ms
Optimized transpose average time: 260816.500 ms

Test PASSED
GPGPU-Sim: exit_simulation called
GPGPU-Sim: simulation thread signaled exit

Press ENTER to exit...
