

        *** GPGPU-Sim Simulator Version 3.2.2  [build 0] ***


GPGPU-Sim PTX: simulation mode 0 (can change with PTX_SIM_MODE_FUNC environment variable:
               1=functional simulation only, 0=detailed performance simulator)
GPGPU-Sim: Configuration options:

-network_mode                           1 # Interconnection network mode
-inter_config_file   config_fermi_islip.icnt # Interconnection network config file
-gpgpu_ptx_use_cuobjdump                    1 # Use cuobjdump to extract ptx and sass from binaries
-gpgpu_experimental_lib_support                    0 # Try to extract code from cuda libraries [Broken because of unknown cudaGetExportTable]
-gpgpu_ptx_convert_to_ptxplus                    0 # Convert SASS (native ISA) to ptxplus and run ptxplus
-gpgpu_ptx_force_max_capability                   20 # Force maximum compute capability
-gpgpu_ptx_inst_debug_to_file                    0 # Dump executed instructions' debug information to file
-gpgpu_ptx_inst_debug_file       inst_debug.txt # Executed instructions' debug output file
-gpgpu_ptx_inst_debug_thread_uid                    1 # Thread UID for executed instructions' debug output
-gpgpu_simd_model                       1 # 1 = post-dominator
-gpgpu_shader_core_pipeline              1536:32 # shader core pipeline config, i.e., {<nthread>:<warpsize>}
-gpgpu_tex_cache:l1  4:128:24,L:R:m:N:L,F:128:4,128:2 # per-shader L1 texture cache  (READ-ONLY) config  {<nsets>:<bsize>:<assoc>,<rep>:<wr>:<alloc>:<wr_alloc>,<mshr>:<N>:<merge>,<mq>:<rf>}
-gpgpu_const_cache:l1 64:64:2,L:R:f:N:L,A:2:32,4 # per-shader L1 constant memory cache  (READ-ONLY) config  {<nsets>:<bsize>:<assoc>,<rep>:<wr>:<alloc>:<wr_alloc>,<mshr>:<N>:<merge>,<mq>} 
-gpgpu_cache:il1     4:128:4,L:R:f:N:L,A:2:32,4 # shader L1 instruction cache config  {<nsets>:<bsize>:<assoc>,<rep>:<wr>:<alloc>:<wr_alloc>,<mshr>:<N>:<merge>,<mq>} 
-gpgpu_cache:dl1     32:128:4,L:L:m:N:H,A:32:8,8 # per-shader L1 data cache config  {<nsets>:<bsize>:<assoc>,<rep>:<wr>:<alloc>:<wr_alloc>,<mshr>:<N>:<merge>,<mq> | none}
-gpgpu_cache:dl1PrefL1                 none # per-shader L1 data cache config  {<nsets>:<bsize>:<assoc>,<rep>:<wr>:<alloc>:<wr_alloc>,<mshr>:<N>:<merge>,<mq> | none}
-gpgpu_cache:dl1PreShared                 none # per-shader L1 data cache config  {<nsets>:<bsize>:<assoc>,<rep>:<wr>:<alloc>:<wr_alloc>,<mshr>:<N>:<merge>,<mq> | none}
-gmem_skip_L1D                          0 # global memory access skip L1D cache (implements -Xptxas -dlcm=cg, default=no skip)
-gpgpu_perfect_mem                      0 # enable perfect memory mode (no cache miss)
-n_regfile_gating_group                    4 # group of lanes that should be read/written together)
-gpgpu_clock_gated_reg_file                    0 # enable clock gated reg file for power calculations
-gpgpu_clock_gated_lanes                    0 # enable clock gated lanes for power calculations
-gpgpu_shader_registers                32768 # Number of registers per shader core. Limits number of concurrent CTAs. (default 8192)
-gpgpu_shader_cta                       8 # Maximum number of concurrent CTAs in shader (default 8)
-gpgpu_num_cta_barriers                   16 # Maximum number of named barriers per CTA (default 16)
-gpgpu_n_clusters                      15 # number of processing clusters
-gpgpu_n_cores_per_cluster                    1 # number of simd cores per cluster
-gpgpu_n_cluster_ejection_buffer_size                    8 # number of packets in ejection buffer
-gpgpu_n_ldst_response_buffer_size                    2 # number of response packets in ld/st unit ejection buffer
-gpgpu_shmem_size                   16384 # Size of shared memory per shader core (default 16kB)
-gpgpu_shmem_size                   49152 # Size of shared memory per shader core (default 16kB)
-gpgpu_shmem_size_PrefL1                16384 # Size of shared memory per shader core (default 16kB)
-gpgpu_shmem_size_PrefShared                16384 # Size of shared memory per shader core (default 16kB)
-gpgpu_shmem_num_banks                   32 # Number of banks in the shared memory in each shader core (default 16)
-gpgpu_shmem_limited_broadcast                    0 # Limit shared memory to do one broadcast per cycle (default on)
-gpgpu_shmem_warp_parts                    1 # Number of portions a warp is divided into for shared memory bank conflict check 
-gpgpu_warpdistro_shader                   -1 # Specify which shader core to collect the warp size distribution from
-gpgpu_warp_issue_shader                    0 # Specify which shader core to collect the warp issue distribution from
-gpgpu_local_mem_map                    1 # Mapping from local memory space address to simulated GPU physical address space (default = enabled)
-gpgpu_num_reg_banks                   16 # Number of register banks (default = 8)
-gpgpu_reg_bank_use_warp_id                    0 # Use warp ID in mapping registers to banks (default = off)
-gpgpu_operand_collector_num_units_sp                    6 # number of collector units (default = 4)
-gpgpu_operand_collector_num_units_sfu                    8 # number of collector units (default = 4)
-gpgpu_operand_collector_num_units_mem                    2 # number of collector units (default = 2)
-gpgpu_operand_collector_num_units_gen                    0 # number of collector units (default = 0)
-gpgpu_operand_collector_num_in_ports_sp                    2 # number of collector unit in ports (default = 1)
-gpgpu_operand_collector_num_in_ports_sfu                    1 # number of collector unit in ports (default = 1)
-gpgpu_operand_collector_num_in_ports_mem                    1 # number of collector unit in ports (default = 1)
-gpgpu_operand_collector_num_in_ports_gen                    0 # number of collector unit in ports (default = 0)
-gpgpu_operand_collector_num_out_ports_sp                    2 # number of collector unit in ports (default = 1)
-gpgpu_operand_collector_num_out_ports_sfu                    1 # number of collector unit in ports (default = 1)
-gpgpu_operand_collector_num_out_ports_mem                    1 # number of collector unit in ports (default = 1)
-gpgpu_operand_collector_num_out_ports_gen                    0 # number of collector unit in ports (default = 0)
-gpgpu_coalesce_arch                   13 # Coalescing arch (default = 13, anything else is off for now)
-gpgpu_num_sched_per_core                    2 # Number of warp schedulers per core
-gpgpu_max_insn_issue_per_warp                    1 # Max number of instructions that can be issued per warp in one cycle by scheduler
-gpgpu_simt_core_sim_order                    1 # Select the simulation order of cores in a cluster (0=Fix, 1=Round-Robin)
-gpgpu_pipeline_widths        2,1,1,2,1,1,2 # Pipeline widths ID_OC_SP,ID_OC_SFU,ID_OC_MEM,OC_EX_SP,OC_EX_SFU,OC_EX_MEM,EX_WB
-gpgpu_num_sp_units                     2 # Number of SP units (default=1)
-gpgpu_num_sfu_units                    1 # Number of SF units (default=1)
-gpgpu_num_mem_units                    1 # Number if ldst units (default=1) WARNING: not hooked up to anything
-gpgpu_scheduler                      gto # Scheduler configuration: < lrr | gto | two_level_active > If two_level_active:<num_active_warps>:<inner_prioritization>:<outer_prioritization>For complete list of prioritization values see shader.h enum scheduler_prioritization_typeDefault: gto
-gpgpu_dram_scheduler                    1 # 0 = fifo, 1 = FR-FCFS (defaul)
-gpgpu_dram_partition_queues              8:8:8:8 # i2$:$2d:d2$:$2i
-l2_ideal                               0 # Use a ideal L2 cache that always hit
-gpgpu_cache:dl2     64:128:8,L:B:m:W:L,A:32:4,4:0,32 # unified banked L2 data cache config  {<nsets>:<bsize>:<assoc>,<rep>:<wr>:<alloc>:<wr_alloc>,<mshr>:<N>:<merge>,<mq>}
-gpgpu_cache:dl2_texture_only                    0 # L2 cache used for texture only
-gpgpu_n_mem                            6 # number of memory modules (e.g. memory controllers) in gpu
-gpgpu_n_sub_partition_per_mchannel                    2 # number of memory subpartition in each memory module
-gpgpu_n_mem_per_ctrlr                    2 # number of memory chips per memory controller
-gpgpu_memlatency_stat                   14 # track and display latency statistics 0x2 enables MC, 0x4 enables queue logs
-gpgpu_frfcfs_dram_sched_queue_size                   16 # 0 = unlimited (default); # entries per chip
-gpgpu_dram_return_queue_size                  116 # 0 = unlimited (default); # entries per chip
-gpgpu_dram_buswidth                    4 # default = 4 bytes (8 bytes per cycle at DDR)
-gpgpu_dram_burst_length                    8 # Burst length of each DRAM request (default = 4 data bus cycle)
-dram_data_command_freq_ratio                    4 # Frequency ratio between DRAM data bus and command bus (default = 2 times, i.e. DDR)
-gpgpu_dram_timing_opt nbk=16:CCD=2:RRD=6:RCD=12:RAS=28:RP=12:RC=40: CL=12:WL=4:CDLR=5:WR=12:nbkgrp=4:CCDL=3:RTPL=2 # DRAM timing parameters = {nbk:tCCD:tRRD:tRCD:tRAS:tRP:tRC:CL:WL:tCDLR:tWR:nbkgrp:tCCDL:tRTPL}
-rop_latency                          120 # ROP queue latency (default 85)
-dram_latency                         100 # DRAM latency (default 30)
-gpgpu_mem_addr_mapping dramid@8;00000000.00000000.00000000.00000000.0000RRRR.RRRRRRRR.BBBCCCCB.CCSSSSSS # mapping memory address to dram model {dramid@<start bit>;<memory address map>}
-gpgpu_mem_addr_test                    0 # run sweep test to check address mapping for aliased address
-gpgpu_mem_address_mask                    1 # 0 = old addressing mask, 1 = new addressing mask, 2 = new add. mask + flipped bank sel and chip sel bits
-gpuwattch_xml_file  gpuwattch_gtx480.xml # GPUWattch XML file
-power_simulation_enabled                    1 # Turn on power simulator (1=On, 0=Off)
-power_per_cycle_dump                    0 # Dump detailed power output each cycle
-power_trace_enabled                    0 # produce a file for the power trace (1=On, 0=Off)
-power_trace_zlevel                     6 # Compression level of the power trace output log (0=no comp, 9=highest)
-steady_power_levels_enabled                    0 # produce a file for the steady power levels (1=On, 0=Off)
-steady_state_definition                  8:4 # allowed deviation:number of samples
-gpgpu_max_cycle                        0 # terminates gpu simulation early (0 = no limit)
-gpgpu_max_insn                         0 # terminates gpu simulation early (0 = no limit)
-gpgpu_max_cta                          0 # terminates gpu simulation early (0 = no limit)
-gpgpu_runtime_stat                   500 # display runtime statistics such as dram utilization {<freq>:<flag>}
-liveness_message_freq                    1 # Minimum number of seconds between simulation liveness messages (0 = always print)
-gpgpu_flush_l1_cache                    0 # Flush L1 cache at the end of each kernel call
-gpgpu_flush_l2_cache                    0 # Flush L2 cache at the end of each kernel call
-gpgpu_deadlock_detect                    1 # Stop the simulation at deadlock (1=on (default), 0=off)
-gpgpu_ptx_instruction_classification                    0 # if enabled will classify ptx instruction types per kernel (Max 255 kernels now)
-gpgpu_ptx_sim_mode                     0 # Select between Performance (default) or Functional simulation (1)
-gpgpu_clock_domains 700.0:700.0:700.0:924.0 # Clock Domain Frequencies in MhZ {<Core Clock>:<ICNT Clock>:<L2 Clock>:<DRAM Clock>}
-gpgpu_max_concurrent_kernel                    8 # maximum kernels that can run concurrently on GPU
-gpgpu_cflog_interval                    0 # Interval between each snapshot in control flow logger
-visualizer_enabled                     0 # Turn on visualizer output (1=On, 0=Off)
-visualizer_outputfile                 NULL # Specifies the output log file for visualizer
-visualizer_zlevel                      6 # Compression level of the visualizer output log (0=no comp, 9=highest)
-trace_enabled                          0 # Turn on traces
-trace_components                    none # comma seperated list of traces to enable. Complete list found in trace_streams.tup. Default none
-trace_sampling_core                    0 # The core which is printed using CORE_DPRINTF. Default 0
-trace_sampling_memory_partition                   -1 # The memory partition which is printed using MEMPART_DPRINTF. Default -1 (i.e. all)
-enable_ptx_file_line_stats                    1 # Turn on PTX source line statistic profiling. (1 = On)
-ptx_line_stats_filename gpgpu_inst_stats.txt # Output file for PTX source line statistics.
-save_embedded_ptx                      0 # saves ptx files embedded in binary as <n>.ptx
-keep                                   0 # keep intermediate files created by GPGPU-Sim when interfacing with external programs
-gpgpu_ptx_save_converted_ptxplus                    0 # Saved converted ptxplus to a file
-ptx_opcode_latency_int         4,13,4,5,145 # Opcode latencies for integers <ADD,MAX,MUL,MAD,DIV>Default 1,1,19,25,145
-ptx_opcode_latency_fp          4,13,4,5,39 # Opcode latencies for single precision floating points <ADD,MAX,MUL,MAD,DIV>Default 1,1,1,1,30
-ptx_opcode_latency_dp         8,19,8,8,330 # Opcode latencies for double precision floating points <ADD,MAX,MUL,MAD,DIV>Default 8,8,8,8,335
-ptx_opcode_initiation_int            1,2,2,1,8 # Opcode initiation intervals for integers <ADD,MAX,MUL,MAD,DIV>Default 1,1,4,4,32
-ptx_opcode_initiation_fp            1,2,1,1,4 # Opcode initiation intervals for single precision floating points <ADD,MAX,MUL,MAD,DIV>Default 1,1,1,1,5
-ptx_opcode_initiation_dp         8,16,8,8,130 # Opcode initiation intervals for double precision floating points <ADD,MAX,MUL,MAD,DIV>Default 8,8,8,8,130
DRAM Timing Options:
nbk                                    16 # number of banks
CCD                                     2 # column to column delay
RRD                                     6 # minimal delay between activation of rows in different banks
RCD                                    12 # row to column delay
RAS                                    28 # time needed to activate row
RP                                     12 # time needed to precharge (deactivate) row
RC                                     40 # row cycle time
CDLR                                    5 # switching from write to read (changes tWTR)
WR                                     12 # last data-in to row precharge
CL                                     12 # CAS latency
WL                                      4 # Write latency
nbkgrp                                  4 # number of bank groups
CCDL                                    3 # column to column delay between accesses to different bank groups
RTPL                                    2 # read to precharge delay between accesses to different bank groups
Total number of memory sub partition = 12
addr_dec_mask[CHIP]  = 0000000000000000 	high:64 low:0
addr_dec_mask[BK]    = 000000000000e100 	high:16 low:8
addr_dec_mask[ROW]   = 000000000fff0000 	high:28 low:16
addr_dec_mask[COL]   = 0000000000001eff 	high:13 low:0
addr_dec_mask[BURST] = 000000000000003f 	high:6 low:0
sub_partition_id_mask = 0000000000000100
GPGPU-Sim uArch: clock freqs: 700000000.000000:700000000.000000:700000000.000000:924000000.000000
GPGPU-Sim uArch: clock periods: 0.00000000142857142857:0.00000000142857142857:0.00000000142857142857:0.00000000108225108225
*** Initializing Memory Statistics ***
GPGPU-Sim uArch: interconnect node map (shaderID+MemID to icntID)
GPGPU-Sim uArch: Memory nodes ID start from index: 15
GPGPU-Sim uArch:    0   1   2   3   4
GPGPU-Sim uArch:    5   6   7   8   9
GPGPU-Sim uArch:   10  11  12  13  14
GPGPU-Sim uArch:   15  16  17  18  19
GPGPU-Sim uArch:   20  21  22  23  24
GPGPU-Sim uArch:   25  26
GPGPU-Sim uArch: interconnect node reverse map (icntID to shaderID+MemID)
GPGPU-Sim uArch: Memory nodes start from ID: 15
GPGPU-Sim uArch:    0   1   2   3   4
GPGPU-Sim uArch:    5   6   7   8   9
GPGPU-Sim uArch:   10  11  12  13  14
GPGPU-Sim uArch:   15  16  17  18  19
GPGPU-Sim uArch:   20  21  22  23  24
GPGPU-Sim uArch:   25  26
328a61d178d3e8b45ddd3c2e89e11ce0  /home/scratch/adwait/applications/benchmarks/CUDA/SCP/gpgpu_ptx_sim__SCP
GPGPU-Sim uArch: performance model initialization complete.
GPGPU-Sim PTX: __cudaRegisterFatBinary, fat_cubin_handle = 1, filename=scalarProd.cu
self exe links to: /home/scratch/adwait/applications/benchmarks/CUDA/SCP/gpgpu_ptx_sim__SCP
Running md5sum using "md5sum /home/scratch/adwait/applications/benchmarks/CUDA/SCP/gpgpu_ptx_sim__SCP "
Running cuobjdump using "$CUDA_INSTALL_PATH/bin/cuobjdump -ptx -elf -sass /home/scratch/adwait/applications/benchmarks/CUDA/SCP/gpgpu_ptx_sim__SCP > _cuobjdump_complete_output_yB1vRj"
Parsing file _cuobjdump_complete_output_yB1vRj
######### cuobjdump parser ########
## Adding new section ELF
Adding arch: sm_20
Adding identifier: scalarProd.cu
## Adding new section PTX
Adding ptx filename: _cuobjdump_1.ptx
Adding arch: sm_20
Adding identifier: scalarProd.cu
Done parsing!!!
GPGPU-Sim PTX: __cudaRegisterFunction _Z13scalarProdGPUPfS_S_ii : hostFun 0x0x40483d, fat_cubin_handle = 1
GPGPU-Sim PTX: allocating shared region for "__cuda___cuda_local_var_42747_35_non_const_accumResult32" from 0x0 to 0x1000 (shared memory space)
GPGPU-Sim PTX: instruction assembly for function '_Z13scalarProdGPUPfS_S_ii'...   done.
GPGPU-Sim PTX: finding reconvergence points for '_Z13scalarProdGPUPfS_S_ii'...
GPGPU-Sim PTX: Finding dominators for '_Z13scalarProdGPUPfS_S_ii'...
GPGPU-Sim PTX: Finding immediate dominators for '_Z13scalarProdGPUPfS_S_ii'...
GPGPU-Sim PTX: Finding postdominators for '_Z13scalarProdGPUPfS_S_ii'...
GPGPU-Sim PTX: Finding immediate postdominators for '_Z13scalarProdGPUPfS_S_ii'...
GPGPU-Sim PTX: pre-decoding instructions for '_Z13scalarProdGPUPfS_S_ii'...
GPGPU-Sim PTX: reconvergence points for _Z13scalarProdGPUPfS_S_ii...
GPGPU-Sim PTX:  1 (potential) branch divergence @  PC=0x020 (_1.ptx:70) @%p1 bra $Lt_0_6146;
GPGPU-Sim PTX:    immediate post dominator      @  PC=0x308 (_1.ptx:187) exit;
GPGPU-Sim PTX:  2 (potential) branch divergence @  PC=0x068 (_1.ptx:81) @!%p2 bra $Lt_0_6914;
GPGPU-Sim PTX:    immediate post dominator      @  PC=0x1d8 (_1.ptx:137) mov.s32 %r25, 512;
GPGPU-Sim PTX:  3 (potential) branch divergence @  PC=0x0e0 (_1.ptx:99) @%p4 bra $Lt_0_12290;
GPGPU-Sim PTX:    immediate post dominator      @  PC=0x1b0 (_1.ptx:131) st.shared.f32 [%rd6+0], %f1;
GPGPU-Sim PTX:  4 (potential) branch divergence @  PC=0x198 (_1.ptx:125) @%p5 bra $Lt_0_8194;
GPGPU-Sim PTX:    immediate post dominator      @  PC=0x1a0 (_1.ptx:126) bra.uni $Lt_0_7682;
GPGPU-Sim PTX:  5 (potential) branch divergence @  PC=0x1a0 (_1.ptx:126) bra.uni $Lt_0_7682;
GPGPU-Sim PTX:    immediate post dominator      @  PC=0x1b0 (_1.ptx:131) st.shared.f32 [%rd6+0], %f1;
GPGPU-Sim PTX:  6 (potential) branch divergence @  PC=0x1d0 (_1.ptx:135) @%p6 bra $Lt_0_7426;
GPGPU-Sim PTX:    immediate post dominator      @  PC=0x1d8 (_1.ptx:137) mov.s32 %r25, 512;
GPGPU-Sim PTX:  7 (potential) branch divergence @  PC=0x1f0 (_1.ptx:143) @%p7 bra $Lt_0_9730;
GPGPU-Sim PTX:    immediate post dominator      @  PC=0x298 (_1.ptx:169) shr.s32 %r25, %r25, 1;
GPGPU-Sim PTX:  8 (potential) branch divergence @  PC=0x290 (_1.ptx:166) @%p8 bra $Lt_0_10242;
GPGPU-Sim PTX:    immediate post dominator      @  PC=0x298 (_1.ptx:169) shr.s32 %r25, %r25, 1;
GPGPU-Sim PTX:  9 (potential) branch divergence @  PC=0x2b0 (_1.ptx:172) @%p9 bra $Lt_0_9474;
GPGPU-Sim PTX:    immediate post dominator      @  PC=0x2b8 (_1.ptx:173) @!%p3 bra $Lt_0_11010;
GPGPU-Sim PTX: 10 (potential) branch divergence @  PC=0x2b8 (_1.ptx:173) @!%p3 bra $Lt_0_11010;
GPGPU-Sim PTX:    immediate post dominator      @  PC=0x2f0 (_1.ptx:182) add.u32 %r2, %r2, %r8;
GPGPU-Sim PTX: 11 (potential) branch divergence @  PC=0x300 (_1.ptx:184) @%p10 bra $Lt_0_6658;
GPGPU-Sim PTX:    immediate post dominator      @  PC=0x308 (_1.ptx:187) exit;
GPGPU-Sim PTX: ... end of reconvergence points for _Z13scalarProdGPUPfS_S_ii
GPGPU-Sim PTX: ... done pre-decoding instructions for '_Z13scalarProdGPUPfS_S_ii'.
GPGPU-Sim PTX: finished parsing EMBEDDED .ptx file _1.ptx
Adding _cuobjdump_1.ptx with cubin handle 1
GPGPU-Sim PTX: extracting embedded .ptx to temporary file "_ptx_MtTU4M"
Running: cat _ptx_MtTU4M | sed 's/.version 1.5/.version 1.4/' | sed 's/, texmode_independent//' | sed 's/\(\.extern \.const\[1\] .b8 \w\+\)\[\]/\1\[1\]/' | sed 's/const\[.\]/const\[0\]/g' > _ptx2_7eAWig
GPGPU-Sim PTX: generating ptxinfo using "$CUDA_INSTALL_PATH/bin/ptxas --gpu-name=sm_20 -v _ptx2_7eAWig --output-file  /dev/null 2> _ptx_MtTU4Minfo"
GPGPU-Sim PTX: Kernel '_Z13scalarProdGPUPfS_S_ii' : regs=18, lmem=0, smem=4096, cmem=68
GPGPU-Sim PTX: removing ptxinfo using "rm -f _ptx_MtTU4M _ptx2_7eAWig _ptx_MtTU4Minfo"
GPGPU-Sim PTX: loading globals with explicit initializers... 
GPGPU-Sim PTX: finished loading globals (0 bytes total).
GPGPU-Sim PTX: loading constants with explicit initializers...  done.
Initializing data...
...allocating CPU memory.
...allocating GPU memory.
...generating input data in CPU mem.
...copying input data to GPU mem.
Data init done.
Executing GPU kernel...
GPGPU-Sim: synchronize waiting for inactive GPU simulation
GPGPU-Sim API: Stream Manager State
GPGPU-Sim: detected inactive GPU simulation thread

GPGPU-Sim PTX: cudaLaunch for 0x0x40483d (mode=performance simulation) on stream 0
GPGPU-Sim PTX: pushing kernel '_Z13scalarProdGPUPfS_S_ii' to stream 0, gridDim= (128,1,1) blockDim = (256,1,1) 
kernel '_Z13scalarProdGPUPfS_S_ii' transfer to GPU hardware scheduler
GPGPU-Sim uArch: Shader 1 bind to kernel 1 '_Z13scalarProdGPUPfS_S_ii'
GPGPU-Sim uArch: CTA/core = 6, limited by: threads regs
GPGPU-Sim uArch: core:  1, cta: 0 initialized @(1,0)
GPGPU-Sim uArch: Shader 2 bind to kernel 1 '_Z13scalarProdGPUPfS_S_ii'
GPGPU-Sim uArch: core:  2, cta: 0 initialized @(1,0)
GPGPU-Sim uArch: Shader 3 bind to kernel 1 '_Z13scalarProdGPUPfS_S_ii'
GPGPU-Sim uArch: core:  3, cta: 0 initialized @(1,0)
GPGPU-Sim uArch: Shader 4 bind to kernel 1 '_Z13scalarProdGPUPfS_S_ii'
GPGPU-Sim uArch: core:  4, cta: 0 initialized @(1,0)
GPGPU-Sim uArch: Shader 5 bind to kernel 1 '_Z13scalarProdGPUPfS_S_ii'
GPGPU-Sim uArch: core:  5, cta: 0 initialized @(1,0)
GPGPU-Sim uArch: Shader 6 bind to kernel 1 '_Z13scalarProdGPUPfS_S_ii'
GPGPU-Sim uArch: core:  6, cta: 0 initialized @(1,0)
GPGPU-Sim uArch: Shader 7 bind to kernel 1 '_Z13scalarProdGPUPfS_S_ii'
GPGPU-Sim uArch: core:  7, cta: 0 initialized @(1,0)
GPGPU-Sim uArch: Shader 8 bind to kernel 1 '_Z13scalarProdGPUPfS_S_ii'
GPGPU-Sim uArch: core:  8, cta: 0 initialized @(1,0)
GPGPU-Sim uArch: Shader 9 bind to kernel 1 '_Z13scalarProdGPUPfS_S_ii'
GPGPU-Sim uArch: core:  9, cta: 0 initialized @(1,0)
GPGPU-Sim uArch: Shader 10 bind to kernel 1 '_Z13scalarProdGPUPfS_S_ii'
GPGPU-Sim uArch: core: 10, cta: 0 initialized @(1,0)
GPGPU-Sim uArch: Shader 11 bind to kernel 1 '_Z13scalarProdGPUPfS_S_ii'
GPGPU-Sim uArch: core: 11, cta: 0 initialized @(1,0)
GPGPU-Sim uArch: Shader 12 bind to kernel 1 '_Z13scalarProdGPUPfS_S_ii'
GPGPU-Sim uArch: core: 12, cta: 0 initialized @(1,0)
GPGPU-Sim uArch: Shader 13 bind to kernel 1 '_Z13scalarProdGPUPfS_S_ii'
GPGPU-Sim uArch: core: 13, cta: 0 initialized @(1,0)
GPGPU-Sim uArch: Shader 14 bind to kernel 1 '_Z13scalarProdGPUPfS_S_ii'
GPGPU-Sim uArch: core: 14, cta: 0 initialized @(1,0)
GPGPU-Sim uArch: Shader 0 bind to kernel 1 '_Z13scalarProdGPUPfS_S_ii'
GPGPU-Sim uArch: core:  0, cta: 0 initialized @(1,0)
GPGPU-Sim uArch: core:  1, cta: 1 initialized @(2,0)
GPGPU-Sim uArch: core:  2, cta: 1 initialized @(2,0)
GPGPU-Sim uArch: core:  3, cta: 1 initialized @(2,0)
GPGPU-Sim uArch: core:  4, cta: 1 initialized @(2,0)
GPGPU-Sim uArch: core:  5, cta: 1 initialized @(2,0)
GPGPU-Sim uArch: core:  6, cta: 1 initialized @(2,0)
GPGPU-Sim uArch: core:  7, cta: 1 initialized @(2,0)
GPGPU-Sim uArch: core:  8, cta: 1 initialized @(2,0)
GPGPU-Sim uArch: core:  9, cta: 1 initialized @(2,0)
GPGPU-Sim uArch: core: 10, cta: 1 initialized @(2,0)
GPGPU-Sim uArch: core: 11, cta: 1 initialized @(2,0)
GPGPU-Sim uArch: core: 12, cta: 1 initialized @(2,0)
GPGPU-Sim uArch: core: 13, cta: 1 initialized @(2,0)
GPGPU-Sim uArch: core: 14, cta: 1 initialized @(2,0)
GPGPU-Sim uArch: core:  0, cta: 1 initialized @(2,0)
GPGPU-Sim uArch: core:  1, cta: 2 initialized @(3,0)
GPGPU-Sim uArch: core:  2, cta: 2 initialized @(3,0)
GPGPU-Sim uArch: core:  3, cta: 2 initialized @(3,0)
GPGPU-Sim uArch: core:  4, cta: 2 initialized @(3,0)
GPGPU-Sim uArch: core:  5, cta: 2 initialized @(3,0)
GPGPU-Sim uArch: core:  6, cta: 2 initialized @(3,0)
GPGPU-Sim uArch: core:  7, cta: 2 initialized @(3,0)
GPGPU-Sim uArch: core:  8, cta: 2 initialized @(3,0)
GPGPU-Sim uArch: core:  9, cta: 2 initialized @(3,0)
GPGPU-Sim uArch: core: 10, cta: 2 initialized @(3,0)
GPGPU-Sim uArch: core: 11, cta: 2 initialized @(3,0)
GPGPU-Sim uArch: core: 12, cta: 2 initialized @(3,0)
GPGPU-Sim uArch: core: 13, cta: 2 initialized @(3,0)
GPGPU-Sim uArch: core: 14, cta: 2 initialized @(3,0)
GPGPU-Sim uArch: core:  0, cta: 2 initialized @(3,0)
GPGPU-Sim uArch: core:  1, cta: 3 initialized @(4,0)
GPGPU-Sim uArch: core:  2, cta: 3 initialized @(4,0)
GPGPU-Sim uArch: core:  3, cta: 3 initialized @(4,0)
GPGPU-Sim uArch: core:  4, cta: 3 initialized @(4,0)
GPGPU-Sim uArch: core:  5, cta: 3 initialized @(4,0)
GPGPU-Sim uArch: core:  6, cta: 3 initialized @(4,0)
GPGPU-Sim uArch: core:  7, cta: 3 initialized @(4,0)
GPGPU-Sim uArch: core:  8, cta: 3 initialized @(4,0)
GPGPU-Sim uArch: core:  9, cta: 3 initialized @(4,0)
GPGPU-Sim uArch: core: 10, cta: 3 initialized @(4,0)
GPGPU-Sim uArch: core: 11, cta: 3 initialized @(4,0)
GPGPU-Sim uArch: core: 12, cta: 3 initialized @(4,0)
GPGPU-Sim uArch: core: 13, cta: 3 initialized @(4,0)
GPGPU-Sim uArch: core: 14, cta: 3 initialized @(4,0)
GPGPU-Sim uArch: core:  0, cta: 3 initialized @(4,0)
GPGPU-Sim uArch: core:  1, cta: 4 initialized @(5,0)
GPGPU-Sim uArch: core:  2, cta: 4 initialized @(5,0)
GPGPU-Sim uArch: core:  3, cta: 4 initialized @(5,0)
GPGPU-Sim uArch: core:  4, cta: 4 initialized @(5,0)
GPGPU-Sim uArch: core:  5, cta: 4 initialized @(5,0)
GPGPU-Sim uArch: core:  6, cta: 4 initialized @(5,0)
GPGPU-Sim uArch: core:  7, cta: 4 initialized @(5,0)
GPGPU-Sim uArch: core:  8, cta: 4 initialized @(5,0)
GPGPU-Sim uArch: core:  9, cta: 4 initialized @(5,0)
GPGPU-Sim uArch: core: 10, cta: 4 initialized @(5,0)
GPGPU-Sim uArch: core: 11, cta: 4 initialized @(5,0)
GPGPU-Sim uArch: core: 12, cta: 4 initialized @(5,0)
GPGPU-Sim uArch: core: 13, cta: 4 initialized @(5,0)
GPGPU-Sim uArch: core: 14, cta: 4 initialized @(5,0)
GPGPU-Sim uArch: core:  0, cta: 4 initialized @(5,0)
GPGPU-Sim uArch: core:  1, cta: 5 initialized @(6,0)
GPGPU-Sim uArch: core:  2, cta: 5 initialized @(6,0)
GPGPU-Sim uArch: core:  3, cta: 5 initialized @(6,0)
GPGPU-Sim uArch: core:  4, cta: 5 initialized @(6,0)
GPGPU-Sim uArch: core:  5, cta: 5 initialized @(6,0)
GPGPU-Sim uArch: core:  6, cta: 5 initialized @(6,0)
GPGPU-Sim uArch: core:  7, cta: 5 initialized @(6,0)
GPGPU-Sim uArch: core:  8, cta: 5 initialized @(6,0)
GPGPU-Sim uArch: core:  9, cta: 5 initialized @(6,0)
GPGPU-Sim uArch: core: 10, cta: 5 initialized @(6,0)
GPGPU-Sim uArch: core: 11, cta: 5 initialized @(6,0)
GPGPU-Sim uArch: core: 12, cta: 5 initialized @(6,0)
GPGPU-Sim uArch: core: 13, cta: 5 initialized @(6,0)
GPGPU-Sim uArch: core: 14, cta: 5 initialized @(6,0)
GPGPU-Sim uArch: core:  0, cta: 5 initialized @(6,0)
GPGPU-Sim uArch: cycles simulated: 500  inst.: 46080 (ipc=92.2) sim_rate=46080 (inst/sec) elapsed = 0:0:00:01 / Tue Apr 16 16:49:24 2019
GPGPU-Sim PTX: 100000 instructions simulated : ctaid=(16,0,0) tid=(159,0,0)
GPGPU-Sim PTX: 200000 instructions simulated : ctaid=(49,0,0) tid=(127,0,0)
GPGPU-Sim PTX: 300000 instructions simulated : ctaid=(82,0,0) tid=(63,0,0)
GPGPU-Sim uArch: cycles simulated: 1000  inst.: 331456 (ipc=331.5) sim_rate=165728 (inst/sec) elapsed = 0:0:00:02 / Tue Apr 16 16:49:25 2019
GPGPU-Sim PTX: 400000 instructions simulated : ctaid=(71,0,0) tid=(223,0,0)
GPGPU-Sim PTX: 500000 instructions simulated : ctaid=(39,0,0) tid=(223,0,0)
GPGPU-Sim PTX: 600000 instructions simulated : ctaid=(22,0,0) tid=(31,0,0)
GPGPU-Sim PTX: 700000 instructions simulated : ctaid=(76,0,0) tid=(159,0,0)
GPGPU-Sim PTX: 800000 instructions simulated : ctaid=(13,0,0) tid=(31,0,0)
GPGPU-Sim PTX: 900000 instructions simulated : ctaid=(12,0,0) tid=(127,0,0)
GPGPU-Sim uArch: cycles simulated: 2000  inst.: 888384 (ipc=444.2) sim_rate=296128 (inst/sec) elapsed = 0:0:00:03 / Tue Apr 16 16:49:26 2019
GPGPU-Sim PTX: 1000000 instructions simulated : ctaid=(63,0,0) tid=(95,0,0)
GPGPU-Sim PTX: 1100000 instructions simulated : ctaid=(57,0,0) tid=(223,0,0)
GPGPU-Sim uArch: cycles simulated: 3000  inst.: 1056576 (ipc=352.2) sim_rate=264144 (inst/sec) elapsed = 0:0:00:04 / Tue Apr 16 16:49:27 2019
GPGPU-Sim PTX: 1200000 instructions simulated : ctaid=(53,0,0) tid=(159,0,0)
GPGPU-Sim uArch: cycles simulated: 4000  inst.: 1192736 (ipc=298.2) sim_rate=238547 (inst/sec) elapsed = 0:0:00:05 / Tue Apr 16 16:49:28 2019
GPGPU-Sim PTX: 1300000 instructions simulated : ctaid=(19,0,0) tid=(63,0,0)
GPGPU-Sim PTX: 1400000 instructions simulated : ctaid=(13,0,0) tid=(95,0,0)
GPGPU-Sim PTX: 1500000 instructions simulated : ctaid=(20,0,0) tid=(63,0,0)
GPGPU-Sim uArch: cycles simulated: 5000  inst.: 1446240 (ipc=289.2) sim_rate=241040 (inst/sec) elapsed = 0:0:00:06 / Tue Apr 16 16:49:29 2019
GPGPU-Sim PTX: 1600000 instructions simulated : ctaid=(7,0,0) tid=(223,0,0)
GPGPU-Sim PTX: 1700000 instructions simulated : ctaid=(65,0,0) tid=(223,0,0)
GPGPU-Sim uArch: cycles simulated: 6000  inst.: 1691520 (ipc=281.9) sim_rate=241645 (inst/sec) elapsed = 0:0:00:07 / Tue Apr 16 16:49:30 2019
GPGPU-Sim PTX: 1800000 instructions simulated : ctaid=(4,0,0) tid=(159,0,0)
GPGPU-Sim PTX: 1900000 instructions simulated : ctaid=(38,0,0) tid=(159,0,0)
GPGPU-Sim PTX: 2000000 instructions simulated : ctaid=(12,0,0) tid=(255,0,0)
GPGPU-Sim uArch: cycles simulated: 7000  inst.: 1932512 (ipc=276.1) sim_rate=241564 (inst/sec) elapsed = 0:0:00:08 / Tue Apr 16 16:49:31 2019
GPGPU-Sim PTX: 2100000 instructions simulated : ctaid=(8,0,0) tid=(95,0,0)
GPGPU-Sim PTX: 2200000 instructions simulated : ctaid=(24,0,0) tid=(31,0,0)
GPGPU-Sim PTX: 2300000 instructions simulated : ctaid=(61,0,0) tid=(159,0,0)
GPGPU-Sim uArch: cycles simulated: 8000  inst.: 2182624 (ipc=272.8) sim_rate=242513 (inst/sec) elapsed = 0:0:00:09 / Tue Apr 16 16:49:32 2019
GPGPU-Sim PTX: 2400000 instructions simulated : ctaid=(31,0,0) tid=(31,0,0)
GPGPU-Sim PTX: 2500000 instructions simulated : ctaid=(28,0,0) tid=(127,0,0)
GPGPU-Sim uArch: cycles simulated: 9000  inst.: 2417312 (ipc=268.6) sim_rate=241731 (inst/sec) elapsed = 0:0:00:10 / Tue Apr 16 16:49:33 2019
GPGPU-Sim PTX: 2600000 instructions simulated : ctaid=(40,0,0) tid=(223,0,0)
GPGPU-Sim PTX: 2700000 instructions simulated : ctaid=(1,0,0) tid=(31,0,0)
GPGPU-Sim PTX: 2800000 instructions simulated : ctaid=(18,0,0) tid=(223,0,0)
GPGPU-Sim uArch: cycles simulated: 10000  inst.: 2671456 (ipc=267.1) sim_rate=242859 (inst/sec) elapsed = 0:0:00:11 / Tue Apr 16 16:49:34 2019
GPGPU-Sim PTX: 2900000 instructions simulated : ctaid=(31,0,0) tid=(31,0,0)
GPGPU-Sim PTX: 3000000 instructions simulated : ctaid=(33,0,0) tid=(191,0,0)
GPGPU-Sim uArch: cycles simulated: 11000  inst.: 2918144 (ipc=265.3) sim_rate=243178 (inst/sec) elapsed = 0:0:00:12 / Tue Apr 16 16:49:35 2019
GPGPU-Sim PTX: 3100000 instructions simulated : ctaid=(68,0,0) tid=(31,0,0)
GPGPU-Sim PTX: 3200000 instructions simulated : ctaid=(23,0,0) tid=(159,0,0)
GPGPU-Sim PTX: 3300000 instructions simulated : ctaid=(44,0,0) tid=(223,0,0)
GPGPU-Sim uArch: cycles simulated: 12000  inst.: 3166336 (ipc=263.9) sim_rate=243564 (inst/sec) elapsed = 0:0:00:13 / Tue Apr 16 16:49:36 2019
GPGPU-Sim PTX: 3400000 instructions simulated : ctaid=(27,0,0) tid=(255,0,0)
GPGPU-Sim PTX: 3500000 instructions simulated : ctaid=(85,0,0) tid=(223,0,0)
GPGPU-Sim uArch: cycles simulated: 13000  inst.: 3402944 (ipc=261.8) sim_rate=243067 (inst/sec) elapsed = 0:0:00:14 / Tue Apr 16 16:49:37 2019
GPGPU-Sim PTX: 3600000 instructions simulated : ctaid=(19,0,0) tid=(191,0,0)
GPGPU-Sim PTX: 3700000 instructions simulated : ctaid=(23,0,0) tid=(191,0,0)
GPGPU-Sim PTX: 3800000 instructions simulated : ctaid=(86,0,0) tid=(95,0,0)
GPGPU-Sim uArch: cycles simulated: 14000  inst.: 3652704 (ipc=260.9) sim_rate=243513 (inst/sec) elapsed = 0:0:00:15 / Tue Apr 16 16:49:38 2019
GPGPU-Sim PTX: 3900000 instructions simulated : ctaid=(80,0,0) tid=(95,0,0)
GPGPU-Sim PTX: 4000000 instructions simulated : ctaid=(4,0,0) tid=(31,0,0)
GPGPU-Sim PTX: 4100000 instructions simulated : ctaid=(2,0,0) tid=(191,0,0)
GPGPU-Sim PTX: 4200000 instructions simulated : ctaid=(42,0,0) tid=(255,0,0)
GPGPU-Sim uArch: cycles simulated: 15000  inst.: 4017568 (ipc=267.8) sim_rate=251098 (inst/sec) elapsed = 0:0:00:16 / Tue Apr 16 16:49:39 2019
GPGPU-Sim PTX: 4300000 instructions simulated : ctaid=(83,0,0) tid=(255,0,0)
GPGPU-Sim PTX: 4400000 instructions simulated : ctaid=(57,0,0) tid=(95,0,0)
GPGPU-Sim uArch: cycles simulated: 15500  inst.: 4244144 (ipc=273.8) sim_rate=249655 (inst/sec) elapsed = 0:0:00:17 / Tue Apr 16 16:49:40 2019
GPGPU-Sim PTX: 4500000 instructions simulated : ctaid=(65,0,0) tid=(159,0,0)
GPGPU-Sim PTX: 4600000 instructions simulated : ctaid=(70,0,0) tid=(15,0,0)
GPGPU-Sim PTX: 4700000 instructions simulated : ctaid=(34,0,0) tid=(123,0,0)
GPGPU-Sim PTX: 4800000 instructions simulated : ctaid=(80,0,0) tid=(199,0,0)
GPGPU-Sim PTX: 4900000 instructions simulated : ctaid=(29,0,0) tid=(32,0,0)
GPGPU-Sim uArch: cycles simulated: 16500  inst.: 4741916 (ipc=287.4) sim_rate=263439 (inst/sec) elapsed = 0:0:00:18 / Tue Apr 16 16:49:41 2019
GPGPU-Sim PTX: 5000000 instructions simulated : ctaid=(23,0,0) tid=(23,0,0)
GPGPU-Sim PTX: 5100000 instructions simulated : ctaid=(13,0,0) tid=(148,0,0)
GPGPU-Sim PTX: 5200000 instructions simulated : ctaid=(5,0,0) tid=(87,0,0)
GPGPU-Sim uArch: cycles simulated: 17000  inst.: 4991661 (ipc=293.6) sim_rate=262719 (inst/sec) elapsed = 0:0:00:19 / Tue Apr 16 16:49:42 2019
GPGPU-Sim PTX: 5300000 instructions simulated : ctaid=(14,0,0) tid=(182,0,0)
GPGPU-Sim PTX: 5400000 instructions simulated : ctaid=(19,0,0) tid=(66,0,0)
GPGPU-Sim PTX: 5500000 instructions simulated : ctaid=(6,0,0) tid=(84,0,0)
GPGPU-Sim PTX: 5600000 instructions simulated : ctaid=(29,0,0) tid=(86,0,0)
GPGPU-Sim PTX: 5700000 instructions simulated : ctaid=(22,0,0) tid=(250,0,0)
GPGPU-Sim uArch: cycles simulated: 18000  inst.: 5500722 (ipc=305.6) sim_rate=275036 (inst/sec) elapsed = 0:0:00:20 / Tue Apr 16 16:49:43 2019
GPGPU-Sim PTX: 5800000 instructions simulated : ctaid=(18,0,0) tid=(132,0,0)
GPGPU-Sim PTX: 5900000 instructions simulated : ctaid=(12,0,0) tid=(32,0,0)
GPGPU-Sim PTX: 6000000 instructions simulated : ctaid=(75,0,0) tid=(82,0,0)
GPGPU-Sim uArch: cycles simulated: 18500  inst.: 5767613 (ipc=311.8) sim_rate=274648 (inst/sec) elapsed = 0:0:00:21 / Tue Apr 16 16:49:44 2019
GPGPU-Sim PTX: 6100000 instructions simulated : ctaid=(21,0,0) tid=(223,0,0)
GPGPU-Sim PTX: 6200000 instructions simulated : ctaid=(14,0,0) tid=(249,0,0)
GPGPU-Sim PTX: 6300000 instructions simulated : ctaid=(58,0,0) tid=(123,0,0)
GPGPU-Sim PTX: 6400000 instructions simulated : ctaid=(24,0,0) tid=(245,0,0)
GPGPU-Sim PTX: 6500000 instructions simulated : ctaid=(17,0,0) tid=(230,0,0)
GPGPU-Sim uArch: cycles simulated: 19500  inst.: 6205659 (ipc=318.2) sim_rate=282075 (inst/sec) elapsed = 0:0:00:22 / Tue Apr 16 16:49:45 2019
GPGPU-Sim PTX: 6600000 instructions simulated : ctaid=(51,0,0) tid=(181,0,0)
GPGPU-Sim PTX: 6700000 instructions simulated : ctaid=(7,0,0) tid=(201,0,0)
GPGPU-Sim uArch: cycles simulated: 20000  inst.: 6402372 (ipc=320.1) sim_rate=278364 (inst/sec) elapsed = 0:0:00:23 / Tue Apr 16 16:49:46 2019
GPGPU-Sim PTX: 6800000 instructions simulated : ctaid=(43,0,0) tid=(237,0,0)
GPGPU-Sim PTX: 6900000 instructions simulated : ctaid=(9,0,0) tid=(16,0,0)
GPGPU-Sim PTX: 7000000 instructions simulated : ctaid=(40,0,0) tid=(217,0,0)
GPGPU-Sim PTX: 7100000 instructions simulated : ctaid=(37,0,0) tid=(103,0,0)
GPGPU-Sim uArch: cycles simulated: 21000  inst.: 6785148 (ipc=323.1) sim_rate=282714 (inst/sec) elapsed = 0:0:00:24 / Tue Apr 16 16:49:47 2019
GPGPU-Sim PTX: 7200000 instructions simulated : ctaid=(10,0,0) tid=(197,0,0)
GPGPU-Sim PTX: 7300000 instructions simulated : ctaid=(0,0,0) tid=(87,0,0)
GPGPU-Sim PTX: 7400000 instructions simulated : ctaid=(29,0,0) tid=(247,0,0)
GPGPU-Sim PTX: 7500000 instructions simulated : ctaid=(88,0,0) tid=(142,0,0)
GPGPU-Sim uArch: cycles simulated: 22000  inst.: 7181995 (ipc=326.5) sim_rate=287279 (inst/sec) elapsed = 0:0:00:25 / Tue Apr 16 16:49:48 2019
GPGPU-Sim PTX: 7600000 instructions simulated : ctaid=(64,0,0) tid=(103,0,0)
GPGPU-Sim PTX: 7700000 instructions simulated : ctaid=(21,0,0) tid=(69,0,0)
GPGPU-Sim uArch: cycles simulated: 22500  inst.: 7350012 (ipc=326.7) sim_rate=282692 (inst/sec) elapsed = 0:0:00:26 / Tue Apr 16 16:49:49 2019
GPGPU-Sim PTX: 7800000 instructions simulated : ctaid=(13,0,0) tid=(113,0,0)
GPGPU-Sim PTX: 7900000 instructions simulated : ctaid=(29,0,0) tid=(208,0,0)
GPGPU-Sim PTX: 8000000 instructions simulated : ctaid=(60,0,0) tid=(171,0,0)
GPGPU-Sim uArch: cycles simulated: 23500  inst.: 7722384 (ipc=328.6) sim_rate=286014 (inst/sec) elapsed = 0:0:00:27 / Tue Apr 16 16:49:50 2019
GPGPU-Sim PTX: 8100000 instructions simulated : ctaid=(15,0,0) tid=(18,0,0)
GPGPU-Sim PTX: 8200000 instructions simulated : ctaid=(34,0,0) tid=(81,0,0)
GPGPU-Sim PTX: 8300000 instructions simulated : ctaid=(33,0,0) tid=(96,0,0)
GPGPU-Sim PTX: 8400000 instructions simulated : ctaid=(24,0,0) tid=(91,0,0)
GPGPU-Sim uArch: cycles simulated: 24500  inst.: 8094992 (ipc=330.4) sim_rate=289106 (inst/sec) elapsed = 0:0:00:28 / Tue Apr 16 16:49:51 2019
GPGPU-Sim PTX: 8500000 instructions simulated : ctaid=(13,0,0) tid=(130,0,0)
GPGPU-Sim PTX: 8600000 instructions simulated : ctaid=(53,0,0) tid=(241,0,0)
GPGPU-Sim uArch: cycles simulated: 25000  inst.: 8232945 (ipc=329.3) sim_rate=283894 (inst/sec) elapsed = 0:0:00:29 / Tue Apr 16 16:49:52 2019
GPGPU-Sim PTX: 8700000 instructions simulated : ctaid=(42,0,0) tid=(225,0,0)
GPGPU-Sim PTX: 8800000 instructions simulated : ctaid=(29,0,0) tid=(7,0,0)
GPGPU-Sim PTX: 8900000 instructions simulated : ctaid=(4,0,0) tid=(7,0,0)
GPGPU-Sim PTX: 9000000 instructions simulated : ctaid=(15,0,0) tid=(231,0,0)
GPGPU-Sim PTX: 9100000 instructions simulated : ctaid=(72,0,0) tid=(167,0,0)
GPGPU-Sim uArch: cycles simulated: 26500  inst.: 8701652 (ipc=328.4) sim_rate=290055 (inst/sec) elapsed = 0:0:00:30 / Tue Apr 16 16:49:53 2019
GPGPU-Sim PTX: 9200000 instructions simulated : ctaid=(29,0,0) tid=(151,0,0)
GPGPU-Sim PTX: 9300000 instructions simulated : ctaid=(6,0,0) tid=(83,0,0)
GPGPU-Sim uArch: cycles simulated: 27000  inst.: 8899912 (ipc=329.6) sim_rate=287093 (inst/sec) elapsed = 0:0:00:31 / Tue Apr 16 16:49:54 2019
GPGPU-Sim PTX: 9400000 instructions simulated : ctaid=(15,0,0) tid=(127,0,0)
GPGPU-Sim PTX: 9500000 instructions simulated : ctaid=(13,0,0) tid=(213,0,0)
GPGPU-Sim PTX: 9600000 instructions simulated : ctaid=(20,0,0) tid=(153,0,0)
GPGPU-Sim PTX: 9700000 instructions simulated : ctaid=(8,0,0) tid=(231,0,0)
GPGPU-Sim uArch: cycles simulated: 28000  inst.: 9309667 (ipc=332.5) sim_rate=290927 (inst/sec) elapsed = 0:0:00:32 / Tue Apr 16 16:49:55 2019
GPGPU-Sim PTX: 9800000 instructions simulated : ctaid=(40,0,0) tid=(15,0,0)
GPGPU-Sim PTX: 9900000 instructions simulated : ctaid=(45,0,0) tid=(253,0,0)
GPGPU-Sim uArch: cycles simulated: 28500  inst.: 9544963 (ipc=334.9) sim_rate=289241 (inst/sec) elapsed = 0:0:00:33 / Tue Apr 16 16:49:56 2019
GPGPU-Sim PTX: 10000000 instructions simulated : ctaid=(47,0,0) tid=(11,0,0)
GPGPU-Sim PTX: 10100000 instructions simulated : ctaid=(35,0,0) tid=(190,0,0)
GPGPU-Sim PTX: 10200000 instructions simulated : ctaid=(47,0,0) tid=(126,0,0)
GPGPU-Sim uArch: Shader 10 finished CTA #0 (28977,0), 5 CTAs running
GPGPU-Sim uArch: core: 10, cta: 0 initialized @(28978,0)
GPGPU-Sim uArch: Shader 2 finished CTA #0 (29003,0), 5 CTAs running
GPGPU-Sim uArch: core:  2, cta: 0 initialized @(29004,0)
GPGPU-Sim PTX: 10300000 instructions simulated : ctaid=(15,0,0) tid=(33,0,0)
GPGPU-Sim uArch: Shader 1 finished CTA #0 (29178,0), 5 CTAs running
GPGPU-Sim uArch: core:  1, cta: 0 initialized @(29179,0)
GPGPU-Sim PTX: 10400000 instructions simulated : ctaid=(50,0,0) tid=(121,0,0)
GPGPU-Sim uArch: Shader 3 finished CTA #0 (29351,0), 5 CTAs running
GPGPU-Sim uArch: core:  3, cta: 0 initialized @(29352,0)
GPGPU-Sim PTX: 10500000 instructions simulated : ctaid=(43,0,0) tid=(103,0,0)
GPGPU-Sim uArch: Shader 5 finished CTA #0 (29464,0), 5 CTAs running
GPGPU-Sim uArch: core:  5, cta: 0 initialized @(29465,0)
GPGPU-Sim uArch: cycles simulated: 29500  inst.: 10068760 (ipc=341.3) sim_rate=296140 (inst/sec) elapsed = 0:0:00:34 / Tue Apr 16 16:49:57 2019
GPGPU-Sim PTX: 10600000 instructions simulated : ctaid=(15,0,0) tid=(140,0,0)
GPGPU-Sim uArch: Shader 6 finished CTA #0 (29689,0), 5 CTAs running
GPGPU-Sim uArch: core:  6, cta: 0 initialized @(29690,0)
GPGPU-Sim PTX: 10700000 instructions simulated : ctaid=(48,0,0) tid=(160,0,0)
GPGPU-Sim PTX: 10800000 instructions simulated : ctaid=(22,0,0) tid=(32,0,0)
GPGPU-Sim uArch: Shader 9 finished CTA #0 (29917,0), 5 CTAs running
GPGPU-Sim uArch: core:  9, cta: 0 initialized @(29918,0)
GPGPU-Sim uArch: cycles simulated: 30000  inst.: 10369998 (ipc=345.7) sim_rate=296285 (inst/sec) elapsed = 0:0:00:35 / Tue Apr 16 16:49:58 2019
GPGPU-Sim uArch: Shader 8 finished CTA #0 (30014,0), 5 CTAs running
GPGPU-Sim uArch: core:  8, cta: 0 initialized @(30015,0)
GPGPU-Sim PTX: 10900000 instructions simulated : ctaid=(96,0,0) tid=(77,0,0)
GPGPU-Sim PTX: 11000000 instructions simulated : ctaid=(14,0,0) tid=(48,0,0)
GPGPU-Sim PTX: 11100000 instructions simulated : ctaid=(94,0,0) tid=(14,0,0)
GPGPU-Sim uArch: cycles simulated: 30500  inst.: 10679343 (ipc=350.1) sim_rate=296648 (inst/sec) elapsed = 0:0:00:36 / Tue Apr 16 16:49:59 2019
GPGPU-Sim PTX: 11200000 instructions simulated : ctaid=(51,0,0) tid=(92,0,0)
GPGPU-Sim PTX: 11300000 instructions simulated : ctaid=(32,0,0) tid=(121,0,0)
GPGPU-Sim uArch: Shader 0 finished CTA #0 (30726,0), 5 CTAs running
GPGPU-Sim uArch: core:  0, cta: 0 initialized @(30727,0)
GPGPU-Sim PTX: 11400000 instructions simulated : ctaid=(95,0,0) tid=(136,0,0)
GPGPU-Sim uArch: Shader 7 finished CTA #0 (30828,0), 5 CTAs running
GPGPU-Sim uArch: core:  7, cta: 0 initialized @(30829,0)
GPGPU-Sim uArch: Shader 4 finished CTA #0 (30934,0), 5 CTAs running
GPGPU-Sim uArch: core:  4, cta: 0 initialized @(30935,0)
GPGPU-Sim PTX: 11500000 instructions simulated : ctaid=(18,0,0) tid=(57,0,0)
GPGPU-Sim uArch: Shader 13 finished CTA #0 (30981,0), 5 CTAs running
GPGPU-Sim uArch: core: 13, cta: 0 initialized @(30982,0)
GPGPU-Sim uArch: Shader 14 finished CTA #0 (31047,0), 5 CTAs running
GPGPU-Sim uArch: core: 14, cta: 0 initialized @(31048,0)
GPGPU-Sim PTX: 11600000 instructions simulated : ctaid=(45,0,0) tid=(43,0,0)
GPGPU-Sim uArch: Shader 1 finished CTA #1 (31117,0), 5 CTAs running
GPGPU-Sim uArch: core:  1, cta: 1 initialized @(31118,0)
GPGPU-Sim uArch: Shader 12 finished CTA #0 (31130,0), 5 CTAs running
GPGPU-Sim uArch: core: 12, cta: 0 initialized @(31131,0)
GPGPU-Sim PTX: 11700000 instructions simulated : ctaid=(29,0,0) tid=(189,0,0)
GPGPU-Sim PTX: 11800000 instructions simulated : ctaid=(101,0,0) tid=(17,0,0)
GPGPU-Sim uArch: cycles simulated: 31500  inst.: 11323201 (ipc=359.5) sim_rate=306032 (inst/sec) elapsed = 0:0:00:37 / Tue Apr 16 16:50:00 2019
GPGPU-Sim PTX: 11900000 instructions simulated : ctaid=(101,0,0) tid=(151,0,0)
GPGPU-Sim uArch: Shader 9 finished CTA #1 (31607,0), 5 CTAs running
GPGPU-Sim uArch: core:  9, cta: 1 initialized @(31608,0)
GPGPU-Sim PTX: 12000000 instructions simulated : ctaid=(42,0,0) tid=(231,0,0)
GPGPU-Sim uArch: Shader 11 finished CTA #0 (31820,0), 5 CTAs running
GPGPU-Sim uArch: core: 11, cta: 0 initialized @(31821,0)
GPGPU-Sim PTX: 12100000 instructions simulated : ctaid=(33,0,0) tid=(199,0,0)
GPGPU-Sim uArch: Shader 8 finished CTA #1 (31981,0), 5 CTAs running
GPGPU-Sim uArch: core:  8, cta: 1 initialized @(31982,0)
GPGPU-Sim uArch: cycles simulated: 32000  inst.: 11600855 (ipc=362.5) sim_rate=305285 (inst/sec) elapsed = 0:0:00:38 / Tue Apr 16 16:50:01 2019
GPGPU-Sim uArch: Shader 3 finished CTA #1 (32033,0), 5 CTAs running
GPGPU-Sim uArch: core:  3, cta: 1 initialized @(32034,0)
GPGPU-Sim PTX: 12200000 instructions simulated : ctaid=(21,0,0) tid=(106,0,0)
GPGPU-Sim uArch: Shader 6 finished CTA #1 (32111,0), 5 CTAs running
GPGPU-Sim uArch: core:  6, cta: 1 initialized @(32112,0)
GPGPU-Sim PTX: 12300000 instructions simulated : ctaid=(52,0,0) tid=(55,0,0)
GPGPU-Sim PTX: 12400000 instructions simulated : ctaid=(30,0,0) tid=(128,0,0)
GPGPU-Sim uArch: cycles simulated: 32500  inst.: 11856347 (ipc=364.8) sim_rate=304008 (inst/sec) elapsed = 0:0:00:39 / Tue Apr 16 16:50:02 2019
GPGPU-Sim PTX: 12500000 instructions simulated : ctaid=(35,0,0) tid=(115,0,0)
GPGPU-Sim uArch: Shader 2 finished CTA #1 (32663,0), 5 CTAs running
GPGPU-Sim uArch: core:  2, cta: 1 initialized @(32664,0)
GPGPU-Sim uArch: Shader 10 finished CTA #1 (32665,0), 5 CTAs running
GPGPU-Sim uArch: core: 10, cta: 1 initialized @(32666,0)
GPGPU-Sim uArch: Shader 14 finished CTA #1 (32722,0), 5 CTAs running
GPGPU-Sim uArch: core: 14, cta: 1 initialized @(32723,0)
GPGPU-Sim PTX: 12600000 instructions simulated : ctaid=(44,0,0) tid=(128,0,0)
GPGPU-Sim PTX: 12700000 instructions simulated : ctaid=(25,0,0) tid=(88,0,0)
GPGPU-Sim uArch: Shader 13 finished CTA #1 (33143,0), 5 CTAs running
GPGPU-Sim uArch: core: 13, cta: 1 initialized @(33144,0)
GPGPU-Sim PTX: 12800000 instructions simulated : ctaid=(49,0,0) tid=(66,0,0)
GPGPU-Sim uArch: cycles simulated: 33500  inst.: 12295168 (ipc=367.0) sim_rate=307379 (inst/sec) elapsed = 0:0:00:40 / Tue Apr 16 16:50:03 2019
GPGPU-Sim PTX: 12900000 instructions simulated : ctaid=(31,0,0) tid=(67,0,0)
GPGPU-Sim uArch: Shader 11 finished CTA #1 (33579,0), 5 CTAs running
GPGPU-Sim uArch: core: 11, cta: 1 initialized @(33580,0)
GPGPU-Sim uArch: Shader 5 finished CTA #1 (33651,0), 5 CTAs running
GPGPU-Sim uArch: core:  5, cta: 1 initialized @(33652,0)
GPGPU-Sim uArch: Shader 12 finished CTA #1 (33700,0), 5 CTAs running
GPGPU-Sim uArch: core: 12, cta: 1 initialized @(33701,0)
GPGPU-Sim uArch: Shader 7 finished CTA #1 (33705,0), 5 CTAs running
GPGPU-Sim uArch: core:  7, cta: 1 initialized @(33706,0)
GPGPU-Sim PTX: 13000000 instructions simulated : ctaid=(62,0,0) tid=(214,0,0)
GPGPU-Sim PTX: 13100000 instructions simulated : ctaid=(54,0,0) tid=(254,0,0)
GPGPU-Sim uArch: cycles simulated: 34000  inst.: 12533564 (ipc=368.6) sim_rate=305696 (inst/sec) elapsed = 0:0:00:41 / Tue Apr 16 16:50:04 2019
GPGPU-Sim uArch: Shader 0 finished CTA #1 (34053,0), 5 CTAs running
GPGPU-Sim uArch: core:  0, cta: 1 initialized @(34054,0)
GPGPU-Sim PTX: 13200000 instructions simulated : ctaid=(42,0,0) tid=(96,0,0)
GPGPU-Sim uArch: Shader 4 finished CTA #1 (34125,0), 5 CTAs running
GPGPU-Sim uArch: core:  4, cta: 1 initialized @(34126,0)
GPGPU-Sim PTX: 13300000 instructions simulated : ctaid=(54,0,0) tid=(187,0,0)
GPGPU-Sim PTX: 13400000 instructions simulated : ctaid=(63,0,0) tid=(165,0,0)
GPGPU-Sim uArch: cycles simulated: 34500  inst.: 12798845 (ipc=371.0) sim_rate=304734 (inst/sec) elapsed = 0:0:00:42 / Tue Apr 16 16:50:05 2019
GPGPU-Sim PTX: 13500000 instructions simulated : ctaid=(37,0,0) tid=(71,0,0)
GPGPU-Sim PTX: 13600000 instructions simulated : ctaid=(37,0,0) tid=(107,0,0)
GPGPU-Sim uArch: cycles simulated: 35000  inst.: 13047389 (ipc=372.8) sim_rate=303427 (inst/sec) elapsed = 0:0:00:43 / Tue Apr 16 16:50:06 2019
GPGPU-Sim PTX: 13700000 instructions simulated : ctaid=(100,0,0) tid=(161,0,0)
GPGPU-Sim PTX: 13800000 instructions simulated : ctaid=(72,0,0) tid=(191,0,0)
GPGPU-Sim PTX: 13900000 instructions simulated : ctaid=(76,0,0) tid=(52,0,0)
GPGPU-Sim uArch: Shader 10 finished CTA #2 (35611,0), 5 CTAs running
GPGPU-Sim uArch: core: 10, cta: 2 initialized @(35612,0)
GPGPU-Sim PTX: 14000000 instructions simulated : ctaid=(30,0,0) tid=(156,0,0)
GPGPU-Sim PTX: 14100000 instructions simulated : ctaid=(93,0,0) tid=(131,0,0)
GPGPU-Sim uArch: cycles simulated: 36000  inst.: 13491251 (ipc=374.8) sim_rate=306619 (inst/sec) elapsed = 0:0:00:44 / Tue Apr 16 16:50:07 2019
GPGPU-Sim uArch: Shader 6 finished CTA #2 (36044,0), 5 CTAs running
GPGPU-Sim uArch: core:  6, cta: 2 initialized @(36045,0)
GPGPU-Sim PTX: 14200000 instructions simulated : ctaid=(94,0,0) tid=(240,0,0)
GPGPU-Sim PTX: 14300000 instructions simulated : ctaid=(33,0,0) tid=(18,0,0)
GPGPU-Sim uArch: cycles simulated: 36500  inst.: 13679479 (ipc=374.8) sim_rate=303988 (inst/sec) elapsed = 0:0:00:45 / Tue Apr 16 16:50:08 2019
GPGPU-Sim PTX: 14400000 instructions simulated : ctaid=(42,0,0) tid=(46,0,0)
GPGPU-Sim PTX: 14500000 instructions simulated : ctaid=(45,0,0) tid=(61,0,0)
GPGPU-Sim uArch: Shader 2 finished CTA #2 (36804,0), 5 CTAs running
GPGPU-Sim uArch: core:  2, cta: 2 initialized @(36805,0)
GPGPU-Sim uArch: Shader 1 finished CTA #2 (36859,0), 5 CTAs running
GPGPU-Sim uArch: core:  1, cta: 2 initialized @(36860,0)
GPGPU-Sim PTX: 14600000 instructions simulated : ctaid=(106,0,0) tid=(17,0,0)
GPGPU-Sim PTX: 14700000 instructions simulated : ctaid=(101,0,0) tid=(217,0,0)
GPGPU-Sim uArch: Shader 3 finished CTA #2 (37158,0), 5 CTAs running
GPGPU-Sim uArch: core:  3, cta: 2 initialized @(37159,0)
GPGPU-Sim PTX: 14800000 instructions simulated : ctaid=(79,0,0) tid=(53,0,0)
GPGPU-Sim uArch: cycles simulated: 37500  inst.: 14190177 (ipc=378.4) sim_rate=308482 (inst/sec) elapsed = 0:0:00:46 / Tue Apr 16 16:50:09 2019
GPGPU-Sim PTX: 14900000 instructions simulated : ctaid=(122,0,0) tid=(231,0,0)
GPGPU-Sim PTX: 15000000 instructions simulated : ctaid=(86,0,0) tid=(15,0,0)
GPGPU-Sim uArch: Shader 4 finished CTA #2 (37923,0), 5 CTAs running
GPGPU-Sim uArch: core:  4, cta: 2 initialized @(37924,0)
GPGPU-Sim uArch: Shader 9 finished CTA #2 (37936,0), 5 CTAs running
GPGPU-Sim uArch: core:  9, cta: 2 initialized @(37937,0)
GPGPU-Sim uArch: Shader 8 finished CTA #2 (37982,0), 5 CTAs running
GPGPU-Sim uArch: core:  8, cta: 2 initialized @(37983,0)
GPGPU-Sim uArch: cycles simulated: 38000  inst.: 14355918 (ipc=377.8) sim_rate=305445 (inst/sec) elapsed = 0:0:00:47 / Tue Apr 16 16:50:10 2019
GPGPU-Sim PTX: 15100000 instructions simulated : ctaid=(109,0,0) tid=(28,0,0)
GPGPU-Sim uArch: Shader 7 finished CTA #2 (38186,0), 5 CTAs running
GPGPU-Sim PTX: 15200000 instructions simulated : ctaid=(71,0,0) tid=(143,0,0)
GPGPU-Sim PTX: 15300000 instructions simulated : ctaid=(48,0,0) tid=(133,0,0)
GPGPU-Sim uArch: Shader 12 finished CTA #2 (38728,0), 5 CTAs running
GPGPU-Sim uArch: Shader 14 finished CTA #2 (38908,0), 5 CTAs running
GPGPU-Sim PTX: 15400000 instructions simulated : ctaid=(91,0,0) tid=(162,0,0)
GPGPU-Sim uArch: cycles simulated: 39000  inst.: 14699376 (ipc=376.9) sim_rate=306237 (inst/sec) elapsed = 0:0:00:48 / Tue Apr 16 16:50:11 2019
GPGPU-Sim PTX: 15500000 instructions simulated : ctaid=(88,0,0) tid=(86,0,0)
GPGPU-Sim uArch: Shader 5 finished CTA #2 (39328,0), 5 CTAs running
GPGPU-Sim uArch: Shader 11 finished CTA #2 (39365,0), 5 CTAs running
GPGPU-Sim uArch: cycles simulated: 39500  inst.: 14874460 (ipc=376.6) sim_rate=303560 (inst/sec) elapsed = 0:0:00:49 / Tue Apr 16 16:50:12 2019
GPGPU-Sim PTX: 15600000 instructions simulated : ctaid=(53,0,0) tid=(103,0,0)
GPGPU-Sim uArch: Shader 13 finished CTA #2 (39676,0), 5 CTAs running
GPGPU-Sim PTX: 15700000 instructions simulated : ctaid=(46,0,0) tid=(35,0,0)
GPGPU-Sim PTX: 15800000 instructions simulated : ctaid=(81,0,0) tid=(91,0,0)
GPGPU-Sim PTX: 15900000 instructions simulated : ctaid=(78,0,0) tid=(157,0,0)
GPGPU-Sim uArch: cycles simulated: 40500  inst.: 15234139 (ipc=376.2) sim_rate=304682 (inst/sec) elapsed = 0:0:00:50 / Tue Apr 16 16:50:13 2019
GPGPU-Sim PTX: 16000000 instructions simulated : ctaid=(65,0,0) tid=(76,0,0)
GPGPU-Sim PTX: 16100000 instructions simulated : ctaid=(62,0,0) tid=(156,0,0)
GPGPU-Sim uArch: cycles simulated: 41000  inst.: 15424473 (ipc=376.2) sim_rate=302440 (inst/sec) elapsed = 0:0:00:51 / Tue Apr 16 16:50:14 2019
GPGPU-Sim uArch: Shader 0 finished CTA #2 (41027,0), 5 CTAs running
GPGPU-Sim PTX: 16200000 instructions simulated : ctaid=(120,0,0) tid=(4,0,0)
GPGPU-Sim PTX: 16300000 instructions simulated : ctaid=(78,0,0) tid=(122,0,0)
GPGPU-Sim PTX: 16400000 instructions simulated : ctaid=(107,0,0) tid=(91,0,0)
GPGPU-Sim PTX: 16500000 instructions simulated : ctaid=(64,0,0) tid=(69,0,0)
GPGPU-Sim PTX: 16600000 instructions simulated : ctaid=(97,0,0) tid=(119,0,0)
GPGPU-Sim uArch: cycles simulated: 42000  inst.: 15868553 (ipc=377.8) sim_rate=305164 (inst/sec) elapsed = 0:0:00:52 / Tue Apr 16 16:50:15 2019
GPGPU-Sim PTX: 16700000 instructions simulated : ctaid=(118,0,0) tid=(76,0,0)
GPGPU-Sim PTX: 16800000 instructions simulated : ctaid=(54,0,0) tid=(254,0,0)
GPGPU-Sim uArch: Shader 2 finished CTA #3 (42428,0), 5 CTAs running
GPGPU-Sim uArch: cycles simulated: 42500  inst.: 16050750 (ipc=377.7) sim_rate=302844 (inst/sec) elapsed = 0:0:00:53 / Tue Apr 16 16:50:16 2019
GPGPU-Sim PTX: 16900000 instructions simulated : ctaid=(75,0,0) tid=(89,0,0)
GPGPU-Sim uArch: Shader 6 finished CTA #3 (42861,0), 5 CTAs running
GPGPU-Sim uArch: Shader 3 finished CTA #3 (42893,0), 5 CTAs running
GPGPU-Sim PTX: 17000000 instructions simulated : ctaid=(56,0,0) tid=(109,0,0)
GPGPU-Sim PTX: 17100000 instructions simulated : ctaid=(69,0,0) tid=(147,0,0)
GPGPU-Sim uArch: Shader 1 finished CTA #3 (43150,0), 5 CTAs running
GPGPU-Sim PTX: 17200000 instructions simulated : ctaid=(66,0,0) tid=(41,0,0)
GPGPU-Sim uArch: Shader 7 finished CTA #3 (43396,0), 4 CTAs running
GPGPU-Sim uArch: cycles simulated: 43500  inst.: 16474230 (ipc=378.7) sim_rate=305078 (inst/sec) elapsed = 0:0:00:54 / Tue Apr 16 16:50:17 2019
GPGPU-Sim PTX: 17300000 instructions simulated : ctaid=(77,0,0) tid=(73,0,0)
GPGPU-Sim PTX: 17400000 instructions simulated : ctaid=(125,0,0) tid=(94,0,0)
GPGPU-Sim uArch: Shader 9 finished CTA #3 (43984,0), 5 CTAs running
GPGPU-Sim uArch: cycles simulated: 44000  inst.: 16674838 (ipc=379.0) sim_rate=303178 (inst/sec) elapsed = 0:0:00:55 / Tue Apr 16 16:50:18 2019
GPGPU-Sim PTX: 17500000 instructions simulated : ctaid=(87,0,0) tid=(207,0,0)
GPGPU-Sim PTX: 17600000 instructions simulated : ctaid=(58,0,0) tid=(226,0,0)
GPGPU-Sim uArch: Shader 8 finished CTA #3 (44527,0), 5 CTAs running
GPGPU-Sim PTX: 17700000 instructions simulated : ctaid=(68,0,0) tid=(41,0,0)
GPGPU-Sim uArch: Shader 11 finished CTA #3 (44711,0), 4 CTAs running
GPGPU-Sim PTX: 17800000 instructions simulated : ctaid=(97,0,0) tid=(103,0,0)
GPGPU-Sim uArch: cycles simulated: 45000  inst.: 17041468 (ipc=378.7) sim_rate=304311 (inst/sec) elapsed = 0:0:00:56 / Tue Apr 16 16:50:19 2019
GPGPU-Sim uArch: Shader 14 finished CTA #3 (45040,0), 4 CTAs running
GPGPU-Sim PTX: 17900000 instructions simulated : ctaid=(89,0,0) tid=(85,0,0)
GPGPU-Sim uArch: Shader 12 finished CTA #3 (45178,0), 4 CTAs running
GPGPU-Sim PTX: 18000000 instructions simulated : ctaid=(123,0,0) tid=(62,0,0)
GPGPU-Sim uArch: Shader 5 finished CTA #3 (45598,0), 4 CTAs running
GPGPU-Sim uArch: Shader 10 finished CTA #3 (45694,0), 5 CTAs running
GPGPU-Sim PTX: 18100000 instructions simulated : ctaid=(60,0,0) tid=(89,0,0)
GPGPU-Sim uArch: cycles simulated: 46000  inst.: 17342634 (ipc=377.0) sim_rate=304256 (inst/sec) elapsed = 0:0:00:57 / Tue Apr 16 16:50:20 2019
GPGPU-Sim PTX: 18200000 instructions simulated : ctaid=(59,0,0) tid=(222,0,0)
GPGPU-Sim uArch: Shader 6 finished CTA #4 (46082,0), 4 CTAs running
GPGPU-Sim PTX: 18300000 instructions simulated : ctaid=(79,0,0) tid=(2,0,0)
GPGPU-Sim uArch: Shader 13 finished CTA #3 (46472,0), 4 CTAs running
GPGPU-Sim PTX: 18400000 instructions simulated : ctaid=(90,0,0) tid=(1,0,0)
GPGPU-Sim uArch: Shader 4 finished CTA #3 (46586,0), 5 CTAs running
GPGPU-Sim uArch: Shader 0 finished CTA #3 (46603,0), 4 CTAs running
GPGPU-Sim PTX: 18500000 instructions simulated : ctaid=(66,0,0) tid=(9,0,0)
GPGPU-Sim uArch: cycles simulated: 47000  inst.: 17712901 (ipc=376.9) sim_rate=305394 (inst/sec) elapsed = 0:0:00:58 / Tue Apr 16 16:50:21 2019
GPGPU-Sim PTX: 18600000 instructions simulated : ctaid=(72,0,0) tid=(255,0,0)
GPGPU-Sim PTX: 18700000 instructions simulated : ctaid=(68,0,0) tid=(201,0,0)
GPGPU-Sim uArch: cycles simulated: 47500  inst.: 17887874 (ipc=376.6) sim_rate=303184 (inst/sec) elapsed = 0:0:00:59 / Tue Apr 16 16:50:22 2019
GPGPU-Sim PTX: 18800000 instructions simulated : ctaid=(89,0,0) tid=(173,0,0)
GPGPU-Sim uArch: Shader 1 finished CTA #4 (47818,0), 4 CTAs running
GPGPU-Sim PTX: 18900000 instructions simulated : ctaid=(91,0,0) tid=(145,0,0)
GPGPU-Sim uArch: Shader 2 finished CTA #4 (47940,0), 4 CTAs running
GPGPU-Sim uArch: Shader 7 finished CTA #4 (48042,0), 3 CTAs running
GPGPU-Sim PTX: 19000000 instructions simulated : ctaid=(114,0,0) tid=(163,0,0)
GPGPU-Sim PTX: 19100000 instructions simulated : ctaid=(71,0,0) tid=(55,0,0)
GPGPU-Sim uArch: Shader 3 finished CTA #4 (48285,0), 4 CTAs running
GPGPU-Sim uArch: Shader 5 finished CTA #4 (48312,0), 3 CTAs running
GPGPU-Sim PTX: 19200000 instructions simulated : ctaid=(82,0,0) tid=(222,0,0)
GPGPU-Sim uArch: cycles simulated: 48500  inst.: 18348296 (ipc=378.3) sim_rate=305804 (inst/sec) elapsed = 0:0:01:00 / Tue Apr 16 16:50:23 2019
GPGPU-Sim PTX: 19300000 instructions simulated : ctaid=(95,0,0) tid=(89,0,0)
GPGPU-Sim PTX: 19400000 instructions simulated : ctaid=(86,0,0) tid=(221,0,0)
GPGPU-Sim PTX: 19500000 instructions simulated : ctaid=(91,0,0) tid=(43,0,0)
GPGPU-Sim PTX: 19600000 instructions simulated : ctaid=(91,0,0) tid=(1,0,0)
GPGPU-Sim uArch: Shader 12 finished CTA #4 (49228,0), 3 CTAs running
GPGPU-Sim PTX: 19700000 instructions simulated : ctaid=(63,0,0) tid=(81,0,0)
GPGPU-Sim uArch: cycles simulated: 49500  inst.: 18870966 (ipc=381.2) sim_rate=309360 (inst/sec) elapsed = 0:0:01:01 / Tue Apr 16 16:50:24 2019
GPGPU-Sim PTX: 19800000 instructions simulated : ctaid=(102,0,0) tid=(6,0,0)
GPGPU-Sim PTX: 19900000 instructions simulated : ctaid=(67,0,0) tid=(6,0,0)
GPGPU-Sim uArch: Shader 9 finished CTA #4 (49709,0), 4 CTAs running
GPGPU-Sim uArch: Shader 10 finished CTA #4 (49746,0), 4 CTAs running
GPGPU-Sim PTX: 20000000 instructions simulated : ctaid=(104,0,0) tid=(191,0,0)
GPGPU-Sim uArch: Shader 8 finished CTA #4 (49938,0), 4 CTAs running
GPGPU-Sim uArch: Shader 14 finished CTA #4 (49948,0), 3 CTAs running
GPGPU-Sim uArch: cycles simulated: 50000  inst.: 19116682 (ipc=382.3) sim_rate=308333 (inst/sec) elapsed = 0:0:01:02 / Tue Apr 16 16:50:25 2019
GPGPU-Sim PTX: 20100000 instructions simulated : ctaid=(83,0,0) tid=(127,0,0)
GPGPU-Sim PTX: 20200000 instructions simulated : ctaid=(72,0,0) tid=(120,0,0)
GPGPU-Sim uArch: Shader 11 finished CTA #4 (50391,0), 3 CTAs running
GPGPU-Sim PTX: 20300000 instructions simulated : ctaid=(124,0,0) tid=(219,0,0)
GPGPU-Sim PTX: 20400000 instructions simulated : ctaid=(85,0,0) tid=(160,0,0)
GPGPU-Sim uArch: Shader 0 finished CTA #4 (50785,0), 3 CTAs running
GPGPU-Sim PTX: 20500000 instructions simulated : ctaid=(121,0,0) tid=(125,0,0)
GPGPU-Sim uArch: cycles simulated: 51000  inst.: 19597016 (ipc=384.3) sim_rate=311063 (inst/sec) elapsed = 0:0:01:03 / Tue Apr 16 16:50:26 2019
GPGPU-Sim uArch: Shader 2 finished CTA #5 (51015,0), 3 CTAs running
GPGPU-Sim uArch: Shader 13 finished CTA #4 (51114,0), 3 CTAs running
GPGPU-Sim PTX: 20600000 instructions simulated : ctaid=(80,0,0) tid=(255,0,0)
GPGPU-Sim PTX: 20700000 instructions simulated : ctaid=(108,0,0) tid=(190,0,0)
GPGPU-Sim uArch: Shader 4 finished CTA #4 (51497,0), 4 CTAs running
GPGPU-Sim uArch: cycles simulated: 51500  inst.: 19833519 (ipc=385.1) sim_rate=309898 (inst/sec) elapsed = 0:0:01:04 / Tue Apr 16 16:50:27 2019
GPGPU-Sim PTX: 20800000 instructions simulated : ctaid=(97,0,0) tid=(17,0,0)
GPGPU-Sim PTX: 20900000 instructions simulated : ctaid=(79,0,0) tid=(60,0,0)
GPGPU-Sim uArch: Shader 7 finished CTA #5 (51916,0), 2 CTAs running
GPGPU-Sim PTX: 21000000 instructions simulated : ctaid=(93,0,0) tid=(14,0,0)
GPGPU-Sim uArch: Shader 5 finished CTA #5 (51989,0), 2 CTAs running
GPGPU-Sim uArch: Shader 6 finished CTA #5 (52041,0), 3 CTAs running
GPGPU-Sim uArch: Shader 3 finished CTA #5 (52132,0), 3 CTAs running
GPGPU-Sim PTX: 21100000 instructions simulated : ctaid=(95,0,0) tid=(108,0,0)
GPGPU-Sim PTX: 21200000 instructions simulated : ctaid=(101,0,0) tid=(203,0,0)
GPGPU-Sim uArch: cycles simulated: 52500  inst.: 20303006 (ipc=386.7) sim_rate=312353 (inst/sec) elapsed = 0:0:01:05 / Tue Apr 16 16:50:28 2019
GPGPU-Sim PTX: 21300000 instructions simulated : ctaid=(90,0,0) tid=(187,0,0)
GPGPU-Sim PTX: 21400000 instructions simulated : ctaid=(108,0,0) tid=(102,0,0)
GPGPU-Sim PTX: 21500000 instructions simulated : ctaid=(82,0,0) tid=(195,0,0)
GPGPU-Sim uArch: cycles simulated: 53000  inst.: 20548623 (ipc=387.7) sim_rate=311342 (inst/sec) elapsed = 0:0:01:06 / Tue Apr 16 16:50:29 2019
GPGPU-Sim uArch: Shader 1 finished CTA #5 (53076,0), 3 CTAs running
GPGPU-Sim PTX: 21600000 instructions simulated : ctaid=(111,0,0) tid=(212,0,0)
GPGPU-Sim PTX: 21700000 instructions simulated : ctaid=(82,0,0) tid=(122,0,0)
GPGPU-Sim uArch: Shader 12 finished CTA #5 (53341,0), 2 CTAs running
GPGPU-Sim uArch: Shader 10 finished CTA #5 (53468,0), 3 CTAs running
GPGPU-Sim PTX: 21800000 instructions simulated : ctaid=(114,0,0) tid=(145,0,0)
GPGPU-Sim uArch: Shader 11 finished CTA #5 (53631,0), 2 CTAs running
GPGPU-Sim PTX: 21900000 instructions simulated : ctaid=(114,0,0) tid=(31,0,0)
GPGPU-Sim uArch: Shader 14 finished CTA #5 (53817,0), 2 CTAs running
GPGPU-Sim PTX: 22000000 instructions simulated : ctaid=(103,0,0) tid=(139,0,0)
GPGPU-Sim uArch: Shader 9 finished CTA #5 (53984,0), 3 CTAs running
GPGPU-Sim uArch: cycles simulated: 54000  inst.: 21027667 (ipc=389.4) sim_rate=313845 (inst/sec) elapsed = 0:0:01:07 / Tue Apr 16 16:50:30 2019
GPGPU-Sim PTX: 22100000 instructions simulated : ctaid=(111,0,0) tid=(61,0,0)
GPGPU-Sim PTX: 22200000 instructions simulated : ctaid=(115,0,0) tid=(73,0,0)
GPGPU-Sim uArch: cycles simulated: 54500  inst.: 21252296 (ipc=390.0) sim_rate=312533 (inst/sec) elapsed = 0:0:01:08 / Tue Apr 16 16:50:31 2019
GPGPU-Sim uArch: Shader 8 finished CTA #5 (54503,0), 3 CTAs running
GPGPU-Sim PTX: 22300000 instructions simulated : ctaid=(96,0,0) tid=(101,0,0)
GPGPU-Sim PTX: 22400000 instructions simulated : ctaid=(119,0,0) tid=(214,0,0)
GPGPU-Sim uArch: Shader 4 finished CTA #5 (54817,0), 3 CTAs running
GPGPU-Sim PTX: 22500000 instructions simulated : ctaid=(119,0,0) tid=(102,0,0)
GPGPU-Sim PTX: 22600000 instructions simulated : ctaid=(97,0,0) tid=(245,0,0)
GPGPU-Sim uArch: Shader 0 finished CTA #5 (55328,0), 2 CTAs running
GPGPU-Sim uArch: Shader 13 finished CTA #5 (55415,0), 2 CTAs running
GPGPU-Sim uArch: cycles simulated: 55500  inst.: 21619818 (ipc=389.5) sim_rate=313330 (inst/sec) elapsed = 0:0:01:09 / Tue Apr 16 16:50:32 2019
GPGPU-Sim PTX: 22700000 instructions simulated : ctaid=(97,0,0) tid=(62,0,0)
GPGPU-Sim PTX: 22800000 instructions simulated : ctaid=(114,0,0) tid=(137,0,0)
GPGPU-Sim PTX: 22900000 instructions simulated : ctaid=(115,0,0) tid=(103,0,0)
GPGPU-Sim PTX: 23000000 instructions simulated : ctaid=(95,0,0) tid=(135,0,0)
GPGPU-Sim PTX: 23100000 instructions simulated : ctaid=(91,0,0) tid=(251,0,0)
GPGPU-Sim uArch: cycles simulated: 56500  inst.: 22058736 (ipc=390.4) sim_rate=315124 (inst/sec) elapsed = 0:0:01:10 / Tue Apr 16 16:50:33 2019
GPGPU-Sim PTX: 23200000 instructions simulated : ctaid=(109,0,0) tid=(61,0,0)
GPGPU-Sim PTX: 23300000 instructions simulated : ctaid=(108,0,0) tid=(59,0,0)
GPGPU-Sim PTX: 23400000 instructions simulated : ctaid=(108,0,0) tid=(237,0,0)
GPGPU-Sim PTX: 23500000 instructions simulated : ctaid=(99,0,0) tid=(250,0,0)
GPGPU-Sim uArch: Shader 6 finished CTA #0 (57478,0), 2 CTAs running
GPGPU-Sim uArch: cycles simulated: 57500  inst.: 22478525 (ipc=390.9) sim_rate=316598 (inst/sec) elapsed = 0:0:01:11 / Tue Apr 16 16:50:34 2019
GPGPU-Sim PTX: 23600000 instructions simulated : ctaid=(93,0,0) tid=(191,0,0)
GPGPU-Sim PTX: 23700000 instructions simulated : ctaid=(119,0,0) tid=(165,0,0)
GPGPU-Sim uArch: Shader 7 finished CTA #0 (57897,0), 1 CTAs running
GPGPU-Sim uArch: Shader 2 finished CTA #0 (57899,0), 2 CTAs running
GPGPU-Sim uArch: Shader 5 finished CTA #0 (57949,0), 1 CTAs running
GPGPU-Sim uArch: cycles simulated: 58000  inst.: 22678499 (ipc=391.0) sim_rate=314979 (inst/sec) elapsed = 0:0:01:12 / Tue Apr 16 16:50:35 2019
GPGPU-Sim PTX: 23800000 instructions simulated : ctaid=(98,0,0) tid=(133,0,0)
GPGPU-Sim PTX: 23900000 instructions simulated : ctaid=(96,0,0) tid=(64,0,0)
GPGPU-Sim uArch: Shader 10 finished CTA #0 (58418,0), 2 CTAs running
GPGPU-Sim uArch: Shader 1 finished CTA #0 (58523,0), 2 CTAs running
GPGPU-Sim PTX: 24000000 instructions simulated : ctaid=(122,0,0) tid=(236,0,0)
GPGPU-Sim uArch: Shader 12 finished CTA #0 (58699,0), 1 CTAs running
GPGPU-Sim PTX: 24100000 instructions simulated : ctaid=(103,0,0) tid=(159,0,0)
GPGPU-Sim uArch: Shader 3 finished CTA #0 (58901,0), 2 CTAs running
GPGPU-Sim uArch: cycles simulated: 59000  inst.: 23057012 (ipc=390.8) sim_rate=315849 (inst/sec) elapsed = 0:0:01:13 / Tue Apr 16 16:50:36 2019
GPGPU-Sim PTX: 24200000 instructions simulated : ctaid=(97,0,0) tid=(247,0,0)
GPGPU-Sim uArch: Shader 11 finished CTA #0 (59132,0), 1 CTAs running
GPGPU-Sim PTX: 24300000 instructions simulated : ctaid=(123,0,0) tid=(176,0,0)
GPGPU-Sim uArch: Shader 14 finished CTA #0 (59475,0), 1 CTAs running
GPGPU-Sim PTX: 24400000 instructions simulated : ctaid=(101,0,0) tid=(254,0,0)
GPGPU-Sim uArch: Shader 0 finished CTA #0 (59657,0), 1 CTAs running
GPGPU-Sim uArch: Shader 8 finished CTA #0 (59818,0), 2 CTAs running
GPGPU-Sim PTX: 24500000 instructions simulated : ctaid=(121,0,0) tid=(73,0,0)
GPGPU-Sim uArch: Shader 9 finished CTA #0 (59961,0), 2 CTAs running
GPGPU-Sim uArch: cycles simulated: 60000  inst.: 23419193 (ipc=390.3) sim_rate=316475 (inst/sec) elapsed = 0:0:01:14 / Tue Apr 16 16:50:37 2019
GPGPU-Sim PTX: 24600000 instructions simulated : ctaid=(112,0,0) tid=(29,0,0)
GPGPU-Sim uArch: Shader 4 finished CTA #0 (60332,0), 2 CTAs running
GPGPU-Sim PTX: 24700000 instructions simulated : ctaid=(116,0,0) tid=(53,0,0)
GPGPU-Sim uArch: Shader 13 finished CTA #0 (60610,0), 1 CTAs running
GPGPU-Sim uArch: Shader 2 finished CTA #1 (60686,0), 1 CTAs running
GPGPU-Sim uArch: Shader 5 finished CTA #1 (60746,0), 0 CTAs running
GPGPU-Sim uArch: Shader 5 empty (release kernel 1 '_Z13scalarProdGPUPfS_S_ii').
GPGPU-Sim PTX: 24800000 instructions simulated : ctaid=(111,0,0) tid=(25,0,0)
GPGPU-Sim uArch: Shader 7 finished CTA #1 (61017,0), 0 CTAs running
GPGPU-Sim uArch: Shader 7 empty (release kernel 1 '_Z13scalarProdGPUPfS_S_ii').
GPGPU-Sim uArch: Shader 14 finished CTA #1 (61065,0), 0 CTAs running
GPGPU-Sim uArch: Shader 14 empty (release kernel 1 '_Z13scalarProdGPUPfS_S_ii').
GPGPU-Sim PTX: 24900000 instructions simulated : ctaid=(111,0,0) tid=(187,0,0)
GPGPU-Sim uArch: Shader 6 finished CTA #1 (61276,0), 1 CTAs running
GPGPU-Sim PTX: 25000000 instructions simulated : ctaid=(126,0,0) tid=(119,0,0)
GPGPU-Sim uArch: cycles simulated: 61500  inst.: 23849628 (ipc=387.8) sim_rate=317995 (inst/sec) elapsed = 0:0:01:15 / Tue Apr 16 16:50:38 2019
GPGPU-Sim uArch: Shader 3 finished CTA #1 (61829,0), 1 CTAs running
GPGPU-Sim PTX: 25100000 instructions simulated : ctaid=(105,0,0) tid=(3,0,0)
GPGPU-Sim uArch: Shader 12 finished CTA #1 (61900,0), 0 CTAs running
GPGPU-Sim uArch: Shader 12 empty (release kernel 1 '_Z13scalarProdGPUPfS_S_ii').
GPGPU-Sim PTX: 25200000 instructions simulated : ctaid=(126,0,0) tid=(208,0,0)
GPGPU-Sim uArch: Shader 11 finished CTA #1 (62349,0), 0 CTAs running
GPGPU-Sim uArch: Shader 11 empty (release kernel 1 '_Z13scalarProdGPUPfS_S_ii').
GPGPU-Sim uArch: Shader 1 finished CTA #1 (62395,0), 1 CTAs running
GPGPU-Sim uArch: Shader 10 finished CTA #1 (62462,0), 1 CTAs running
GPGPU-Sim PTX: 25300000 instructions simulated : ctaid=(119,0,0) tid=(211,0,0)
GPGPU-Sim uArch: Shader 0 finished CTA #1 (62816,0), 0 CTAs running
GPGPU-Sim uArch: Shader 0 empty (release kernel 1 '_Z13scalarProdGPUPfS_S_ii').
GPGPU-Sim uArch: Shader 8 finished CTA #1 (62852,0), 1 CTAs running
GPGPU-Sim uArch: Shader 13 finished CTA #1 (62855,0), 0 CTAs running
GPGPU-Sim uArch: Shader 13 empty (release kernel 1 '_Z13scalarProdGPUPfS_S_ii').
GPGPU-Sim PTX: 25400000 instructions simulated : ctaid=(121,0,0) tid=(1,0,0)
GPGPU-Sim uArch: Shader 9 finished CTA #1 (63300,0), 1 CTAs running
GPGPU-Sim uArch: cycles simulated: 63500  inst.: 24281559 (ipc=382.4) sim_rate=319494 (inst/sec) elapsed = 0:0:01:16 / Tue Apr 16 16:50:39 2019
GPGPU-Sim uArch: Shader 6 finished CTA #2 (63670,0), 0 CTAs running
GPGPU-Sim uArch: Shader 6 empty (release kernel 1 '_Z13scalarProdGPUPfS_S_ii').
GPGPU-Sim PTX: 25500000 instructions simulated : ctaid=(122,0,0) tid=(161,0,0)
GPGPU-Sim uArch: Shader 1 finished CTA #2 (63940,0), 0 CTAs running
GPGPU-Sim uArch: Shader 1 empty (release kernel 1 '_Z13scalarProdGPUPfS_S_ii').
GPGPU-Sim uArch: Shader 4 finished CTA #1 (64004,0), 1 CTAs running
GPGPU-Sim uArch: Shader 3 finished CTA #2 (64378,0), 0 CTAs running
GPGPU-Sim uArch: Shader 3 empty (release kernel 1 '_Z13scalarProdGPUPfS_S_ii').
GPGPU-Sim uArch: Shader 2 finished CTA #2 (64425,0), 0 CTAs running
GPGPU-Sim uArch: Shader 2 empty (release kernel 1 '_Z13scalarProdGPUPfS_S_ii').
GPGPU-Sim uArch: Shader 10 finished CTA #2 (64636,0), 0 CTAs running
GPGPU-Sim uArch: Shader 10 empty (release kernel 1 '_Z13scalarProdGPUPfS_S_ii').
GPGPU-Sim uArch: Shader 9 finished CTA #2 (64844,0), 0 CTAs running
GPGPU-Sim uArch: Shader 9 empty (release kernel 1 '_Z13scalarProdGPUPfS_S_ii').
GPGPU-Sim uArch: Shader 8 finished CTA #2 (65269,0), 0 CTAs running
GPGPU-Sim uArch: Shader 8 empty (release kernel 1 '_Z13scalarProdGPUPfS_S_ii').
GPGPU-Sim PTX: 25600000 instructions simulated : ctaid=(125,0,0) tid=(49,0,0)
GPGPU-Sim uArch: Shader 4 finished CTA #2 (66548,0), 0 CTAs running
GPGPU-Sim uArch: Shader 4 empty (release kernel 1 '_Z13scalarProdGPUPfS_S_ii').
GPGPU-Sim uArch: GPU detected kernel '_Z13scalarProdGPUPfS_S_ii' finished on shader 4.
kernel_name = _Z13scalarProdGPUPfS_S_ii 
kernel_launch_uid = 1 
gpu_sim_cycle = 66549
gpu_sim_insn = 24441600
gpu_ipc =     367.2722
gpu_tot_sim_cycle = 66549
gpu_tot_sim_insn = 24441600
gpu_tot_ipc =     367.2722
gpu_tot_issued_cta = 0
gpu_stall_dramfull = 33159
gpu_stall_icnt2sh    = 345509
gpu_total_sim_rate=321600

========= Core cache stats =========
L1I_cache:
	L1I_total_cache_accesses = 465650
	L1I_total_cache_misses = 2034
	L1I_total_cache_miss_rate = 0.0044
	L1I_total_cache_pending_hits = 0
	L1I_total_cache_reservation_fails = 6262
L1D_cache:
	L1D_cache_core[0]: Access = 4112, Miss = 4112, Miss_rate = 1.000, Pending_hits = 0, Reservation_fails = 37571
	L1D_cache_core[1]: Access = 4626, Miss = 4626, Miss_rate = 1.000, Pending_hits = 0, Reservation_fails = 37937
	L1D_cache_core[2]: Access = 4626, Miss = 4626, Miss_rate = 1.000, Pending_hits = 0, Reservation_fails = 36231
	L1D_cache_core[3]: Access = 4626, Miss = 4626, Miss_rate = 1.000, Pending_hits = 0, Reservation_fails = 37239
	L1D_cache_core[4]: Access = 4626, Miss = 4626, Miss_rate = 1.000, Pending_hits = 0, Reservation_fails = 37694
	L1D_cache_core[5]: Access = 4112, Miss = 4112, Miss_rate = 1.000, Pending_hits = 0, Reservation_fails = 35233
	L1D_cache_core[6]: Access = 4626, Miss = 4626, Miss_rate = 1.000, Pending_hits = 0, Reservation_fails = 35930
	L1D_cache_core[7]: Access = 4112, Miss = 4112, Miss_rate = 1.000, Pending_hits = 0, Reservation_fails = 33920
	L1D_cache_core[8]: Access = 4626, Miss = 4626, Miss_rate = 1.000, Pending_hits = 0, Reservation_fails = 37341
	L1D_cache_core[9]: Access = 4626, Miss = 4626, Miss_rate = 1.000, Pending_hits = 0, Reservation_fails = 37747
	L1D_cache_core[10]: Access = 4626, Miss = 4626, Miss_rate = 1.000, Pending_hits = 0, Reservation_fails = 36961
	L1D_cache_core[11]: Access = 4112, Miss = 4112, Miss_rate = 1.000, Pending_hits = 0, Reservation_fails = 35090
	L1D_cache_core[12]: Access = 4112, Miss = 4112, Miss_rate = 1.000, Pending_hits = 0, Reservation_fails = 34800
	L1D_cache_core[13]: Access = 4112, Miss = 4112, Miss_rate = 1.000, Pending_hits = 0, Reservation_fails = 36735
	L1D_cache_core[14]: Access = 4112, Miss = 4112, Miss_rate = 1.000, Pending_hits = 0, Reservation_fails = 34859
	L1D_total_cache_accesses = 65792
	L1D_total_cache_misses = 65792
	L1D_total_cache_miss_rate = 1.0000
	L1D_total_cache_pending_hits = 0
	L1D_total_cache_reservation_fails = 545288
	L1D_cache_data_port_util = 0.000
	L1D_cache_fill_port_util = 0.069
L1C_cache:
	L1C_total_cache_accesses = 19712
	L1C_total_cache_misses = 480
	L1C_total_cache_miss_rate = 0.0244
	L1C_total_cache_pending_hits = 0
	L1C_total_cache_reservation_fails = 3404
L1T_cache:
	L1T_total_cache_accesses = 0
	L1T_total_cache_misses = 0
	L1T_total_cache_pending_hits = 0
	L1T_total_cache_reservation_fails = 0

Total_core_cache_stats:
	Total_core_cache_stats_breakdown[GLOBAL_ACC_R][MISS] = 65536
	Total_core_cache_stats_breakdown[GLOBAL_ACC_R][RESERVATION_FAIL] = 544588
	Total_core_cache_stats_breakdown[CONST_ACC_R][HIT] = 19232
	Total_core_cache_stats_breakdown[CONST_ACC_R][MISS] = 480
	Total_core_cache_stats_breakdown[CONST_ACC_R][RESERVATION_FAIL] = 3404
	Total_core_cache_stats_breakdown[GLOBAL_ACC_W][MISS] = 256
	Total_core_cache_stats_breakdown[GLOBAL_ACC_W][RESERVATION_FAIL] = 700
	Total_core_cache_stats_breakdown[INST_ACC_R][HIT] = 463616
	Total_core_cache_stats_breakdown[INST_ACC_R][MISS] = 2034
	Total_core_cache_stats_breakdown[INST_ACC_R][RESERVATION_FAIL] = 6262
Shader 0 warp_id issue ditsribution:
warp_id:
0, 1, 2, 3, 4, 5, 6, 7, 8, 9, 10, 11, 12, 13, 14, 15, 16, 17, 18, 19, 20, 21, 22, 23, 24, 25, 26, 27, 28, 29, 30, 31, 32, 33, 34, 35, 36, 37, 38, 39, 40, 41, 42, 43, 44, 45, 46, 47, 
distro:
2148, 1644, 1564, 1564, 1484, 1484, 1484, 1484, 2148, 1644, 1564, 1564, 1484, 1484, 1484, 1484, 1074, 822, 782, 782, 742, 742, 742, 742, 1074, 822, 782, 782, 742, 742, 742, 742, 1074, 822, 782, 782, 742, 742, 742, 742, 1074, 822, 782, 782, 742, 742, 742, 742, 
gpgpu_n_tot_thrd_icount = 26329088
gpgpu_n_tot_w_icount = 822784
gpgpu_n_stall_shd_mem = 548692
gpgpu_n_mem_read_local = 0
gpgpu_n_mem_write_local = 0
gpgpu_n_mem_read_global = 65536
gpgpu_n_mem_write_global = 256
gpgpu_n_mem_texture = 0
gpgpu_n_mem_const = 15
gpgpu_n_load_insn  = 2097152
gpgpu_n_store_insn = 256
gpgpu_n_shmem_insn = 1048064
gpgpu_n_tex_insn = 0
gpgpu_n_const_mem_insn = 0
gpgpu_n_param_mem_insn = 622848
gpgpu_n_shmem_bkconflict = 0
gpgpu_n_cache_bkconflict = 0
gpgpu_n_intrawarp_mshr_merge = 0
gpgpu_n_cmem_portconflict = 3404
gpgpu_stall_shd_mem[c_mem][bk_conf] = 3404
gpgpu_stall_shd_mem[c_mem][mshr_rc] = 0
gpgpu_stall_shd_mem[c_mem][icnt_rc] = 0
gpgpu_stall_shd_mem[c_mem][data_port_stall] = 0
gpgpu_stall_shd_mem[t_mem][mshr_rc] = 0
gpgpu_stall_shd_mem[t_mem][icnt_rc] = 0
gpgpu_stall_shd_mem[t_mem][data_port_stall] = 0
gpgpu_stall_shd_mem[s_mem][bk_conf] = 0
gpgpu_stall_shd_mem[gl_mem][bk_conf] = 0
gpgpu_stall_shd_mem[gl_mem][coal_stall] = 545288
gpgpu_stall_shd_mem[gl_mem][data_port_stall] = 0
gpgpu_stall_shd_mem[g_mem_ld][mshr_rc] = 0
gpgpu_stall_shd_mem[g_mem_ld][icnt_rc] = 0
gpgpu_stall_shd_mem[g_mem_ld][wb_icnt_rc] = 0
gpgpu_stall_shd_mem[g_mem_ld][wb_rsrv_fail] = 0
gpgpu_stall_shd_mem[g_mem_st][mshr_rc] = 0
gpgpu_stall_shd_mem[g_mem_st][icnt_rc] = 0
gpgpu_stall_shd_mem[g_mem_st][wb_icnt_rc] = 0
gpgpu_stall_shd_mem[g_mem_st][wb_rsrv_fail] = 0
gpgpu_stall_shd_mem[l_mem_ld][mshr_rc] = 0
gpgpu_stall_shd_mem[l_mem_ld][icnt_rc] = 0
gpgpu_stall_shd_mem[l_mem_ld][wb_icnt_rc] = 0
gpgpu_stall_shd_mem[l_mem_ld][wb_rsrv_fail] = 0
gpgpu_stall_shd_mem[l_mem_st][mshr_rc] = 0
gpgpu_stall_shd_mem[l_mem_st][icnt_rc] = 0
gpgpu_stall_shd_mem[l_mem_ld][wb_icnt_rc] = 0
gpgpu_stall_shd_mem[l_mem_ld][wb_rsrv_fail] = 0
gpu_reg_bank_conflict_stalls = 0
Warp Occupancy Distribution:
Stall:762632	W0_Idle:26610	W0_Scoreboard:288920	W1:6656	W2:5120	W3:0	W4:5120	W5:0	W6:0	W7:0	W8:5120	W9:0	W10:0	W11:0	W12:0	W13:0	W14:0	W15:0	W16:5120	W17:0	W18:0	W19:0	W20:0	W21:0	W22:0	W23:0	W24:0	W25:0	W26:0	W27:0	W28:0	W29:0	W30:0	W31:0	W32:795648
traffic_breakdown_coretomem[CONST_ACC_R] = 120 {8:15,}
traffic_breakdown_coretomem[GLOBAL_ACC_R] = 524288 {8:65536,}
traffic_breakdown_coretomem[GLOBAL_ACC_W] = 10240 {40:256,}
traffic_breakdown_coretomem[INST_ACC_R] = 840 {8:105,}
traffic_breakdown_memtocore[CONST_ACC_R] = 1080 {72:15,}
traffic_breakdown_memtocore[GLOBAL_ACC_R] = 8912896 {136:65536,}
traffic_breakdown_memtocore[GLOBAL_ACC_W] = 2048 {8:256,}
traffic_breakdown_memtocore[INST_ACC_R] = 14280 {136:105,}
maxmrqlatency = 374 
maxdqlatency = 0 
maxmflatency = 832 
averagemflatency = 348 
max_icnt2mem_latency = 315 
max_icnt2sh_latency = 66548 
mrq_lat_table:42606 	1569 	1885 	4091 	7542 	5326 	2310 	236 	3 	0 	0 	0 	0 	0 	0 	0 	0 	0 	0 	0 	0 	0 	0 	0 	0 	0 	0 	0 	0 	0 	0 	0 	
dq_lat_table:0 	0 	0 	0 	0 	0 	0 	0 	0 	0 	0 	0 	0 	0 	0 	0 	0 	0 	0 	0 	0 	0 	0 	0 	0 	0 	0 	0 	0 	0 	0 	0 	
mf_lat_table:0 	0 	0 	0 	0 	0 	0 	234 	63949 	1624 	0 	0 	0 	0 	0 	0 	0 	0 	0 	0 	0 	0 	0 	0 	0 	0 	0 	0 	0 	0 	0 	0 	
icnt2mem_lat_table:0 	0 	0 	57887 	5145 	1293 	1172 	411 	4 	0 	0 	0 	0 	0 	0 	0 	0 	0 	0 	0 	0 	0 	0 	0 	
icnt2sh_lat_table:0 	0 	0 	8199 	34977 	20944 	1429 	2 	0 	0 	0 	0 	0 	0 	84 	171 	1 	0 	0 	0 	0 	0 	0 	0 	
mf_lat_pw_table:0 	0 	0 	0 	0 	0 	0 	4 	125 	0 	0 	0 	0 	0 	0 	0 	0 	0 	0 	0 	0 	0 	0 	0 	0 	0 	0 	0 	0 	0 	0 	0 	
maximum concurrent accesses to same row:
dram[0]:         6         6         5         6         6         5         5         4         6         6         6         6         6         6         6         5 
dram[1]:         8         8         6         6         8         6         6         5         6         6         6         6         6         6         4         6 
dram[2]:         4         6         6         6         8         6         5         4         6         5         6         6         6         6         5         6 
dram[3]:         8         8         6         6         6         5         6         6         6         6         6         6         6         6         4         6 
dram[4]:         6         6         5         6         5         5         4         6         6         6         6         6         6         6         5         6 
dram[5]:         6         5         6         6         6         4         6         5         6         6         6         6         6         6         6         4 
maximum service time to same row:
dram[0]:      1051      1951      1957      1972      1922      1988      1959      1935      1963      1957      1973      1966      1976      1997      1938      1941 
dram[1]:      1443      1954      1961      1979      1926      1993      1963      1938      1967      1960      1977      1999      1981      2001      1943      1944 
dram[2]:      1963      1929      1965      1937      1929      1953      1966      1954      1972      1919      1981      1944      1985      1969      1947      1971 
dram[3]:      1966      1932      1969      1941      1934      1957      1976      1959      1977      1924      1985      1949      1988      1972      1951      1975 
dram[4]:      1943      1937      1965      1944      1979      1961      1926      1963      1949      1928      1959      1953      1985      1976      1932      1979 
dram[5]:      1947      1941      1969      1949      1986      1965      1931      1966      1953      1932      1963      1957      1993      1989      1937      1982 
average row accesses per activate:
dram[0]:  1.310680  1.270321  1.377049  1.352113  1.332031  1.394683  1.298893  1.369650  1.457557  1.366990  1.312860  1.398374  1.473684  1.354839  1.411765  1.379877 
dram[1]:  1.311284  1.265537  1.379877  1.371429  1.375000  1.306513  1.330813  1.323308  1.396825  1.359073  1.398773  1.342466  1.464052  1.330693  1.360324  1.330693 
dram[2]:  1.281369  1.284895  1.330693  1.371429  1.377778  1.297913  1.330813  1.303704  1.372320  1.405190  1.381818  1.306513  1.382716  1.470459  1.420719  1.400000 
dram[3]:  1.239411  1.365854  1.365854  1.360324  1.304015  1.341177  1.310987  1.396825  1.388560  1.388560  1.333333  1.412008  1.304854  1.432836  1.335984  1.377049 
dram[4]:  1.292308  1.272727  1.338645  1.312500  1.286792  1.379032  1.268468  1.351248  1.396825  1.399602  1.376494  1.358566  1.467249  1.346693  1.394191  1.417722 
dram[5]:  1.349398  1.272727  1.333333  1.382716  1.400411  1.273743  1.353846  1.325800  1.346080  1.408000  1.341797  1.339882  1.429787  1.391304  1.374233  1.292308 
average row locality = 65568/48425 = 1.354011
number of total memory accesses made:
dram[0]:         0         0         0         0         0         0         0         0         0         0         0         0         0         0         0         0 
dram[1]:         0         0         0         0         0         0         0         0         0         0         0         0         0         0         0         0 
dram[2]:         0         0         0         0         0         0         0         0         0         0         0         0         0         0         0         0 
dram[3]:         0         0         0         0         0         0         0         0         0         0         0         0         0         0         0         0 
dram[4]:         0         0         0         0         0         0         0         0         0         0         0         0         0         0         0         0 
dram[5]:         0         0         0         0         0         0         0         0         0         0         0         0         0         0         0         0 
total accesses: 0
min_bank_accesses = 0!
min_chip_accesses = 0!
number of total read accesses:
dram[0]:       675       672       672       672       682       682       704       704       704       704       684       684       672       672       672       672 
dram[1]:       674       672       672       672       682       682       704       704       704       704       684       684       672       672       672       672 
dram[2]:       674       672       672       672       682       684       704       704       704       704       684       682       672       672       672       672 
dram[3]:       673       672       672       672       682       684       704       704       704       704       684       682       672       672       672       672 
dram[4]:       672       672       672       672       682       684       704       704       704       704       685       682       672       672       672       672 
dram[5]:       672       672       672       672       682       684       704       704       704       704       684       682       672       672       672       672 
total reads: 65553
bank skew: 704/672 = 1.05
chip skew: 10927/10924 = 1.00
number of total write accesses:
dram[0]:         0         0         0         0         0         0         0         0         0         0         0         4         0         0         0         0 
dram[1]:         0         0         0         0         0         0         0         0         0         0         0         2         0         0         0         0 
dram[2]:         0         0         0         0         0         0         0         0         0         0         0         0         0         0         0         0 
dram[3]:         0         0         0         0         0         0         0         0         0         0         0         0         0         0         0         0 
dram[4]:         0         0         0         0         0         0         0         0         0         0         6         0         0         0         0         0 
dram[5]:         0         0         0         0         0         0         0         0         0         0         3         0         0         0         0         0 
total reads: 15
min_bank_accesses = 0!
min_chip_accesses = 0!
average mf latency per bank:
dram[0]:        370       351       367       343       365       348       370       348       362       336       362       357       364       347       358       345
dram[1]:        338       336       335       339       336       339       341       337       334       332       336       349       339       334       338       339
dram[2]:        354       340       353       340       355       343       357       345       351       333       356       342       358       338       356       344
dram[3]:        342       361       338       359       341       368       343       371       335       356       341       360       346       362       339       372
dram[4]:        364       341       362       341       371       340       365       345       359       334       382       344       362       340       365       343
dram[5]:        344       355       343       356       339       361       349       362       338       349       357       358       344       360       344       363
maximum mf latency per bank:
dram[0]:        716       659       721       572       691       557       763       651       832       522       674       567       697       580       689       556
dram[1]:        585       566       581       576       516       622       612       596       609       533       593       546       567       593       572       568
dram[2]:        676       612       557       584       653       714       652       647       590       586       668       622       566       550       559       616
dram[3]:        572       687       577       619       583       652       695       660       539       651       587       614       598       651       609       668
dram[4]:        643       632       650       582       724       667       714       666       688       588       731       610       662       610       689       657
dram[5]:        647       565       644       603       555       635       631       633       552       590       587       634       606       658       617       599

Number of Memory Banks Accessed per Memory Operation per Warp (from 0):
0	0	0	0	0	0	0	0	0	0	0	0	0	0	0	0	0	0	0	0	0	0	0	0	0	0	0	0	0	0	0	0	0	0	0	0	0	0	0	0	0	0	0	0	0	0	0	0	0	0	0	0	0	0	0	0	0	0	0	0	0	0	0	0	0	0	0	0	0	0	0	0	0	0	0	0	0	0	0	0	0	0	0	0	0	0	0	0	0	0	0	0	0	0	0	0	
Average # of Memory Banks Accessed per Memory Operation per Warp=-nan

position of mrq chosen
0	0	0	0	0	0	0	0	0	0	0	0	0	0	0	0	

average position of mrq chosen = -nan
Memory Partition 0: 
Cache L2_bank_000:
MSHR contents

Cache L2_bank_001:
MSHR contents

In Dram Latency Queue (total = 0): 
DRAM[0]: 16 bks, busW=4 BL=8 CL=12, tRRD=2 tCCD=6, tRCD=12 tRAS=28 tRP=12 tRC=40
n_cmd=87844 n_nop=49976 n_act=8012 n_pre=7996 n_req=10931 n_rd=21854 n_write=6 bw_util=0.4977
n_activity=78719 dram_eff=0.5554
bk0: 1350a 64364i bk1: 1344a 63971i bk2: 1344a 64775i bk3: 1344a 65411i bk4: 1364a 63571i bk5: 1364a 64575i bk6: 1408a 62176i bk7: 1408a 62735i bk8: 1408a 65147i bk9: 1408a 65140i bk10: 1368a 63826i bk11: 1368a 64908i bk12: 1344a 65410i bk13: 1344a 64372i bk14: 1344a 64778i bk15: 1344a 63698i 
dram_util_bins: 0 0 0 0 0 0 0 0 0 0
dram_eff_bins: 0 0 0 0 0 0 0 0 0 0
mrqq: max=16 avg=1.81285
Memory Partition 1: 
Cache L2_bank_002:
MSHR contents

Cache L2_bank_003:
MSHR contents

In Dram Latency Queue (total = 0): 
DRAM[1]: 16 bks, busW=4 BL=8 CL=12, tRRD=2 tCCD=6, tRCD=12 tRAS=28 tRP=12 tRC=40
n_cmd=87844 n_nop=49834 n_act=8086 n_pre=8070 n_req=10928 n_rd=21852 n_write=2 bw_util=0.4976
n_activity=79543 dram_eff=0.5495
bk0: 1348a 65571i bk1: 1344a 64670i bk2: 1344a 66141i bk3: 1344a 65569i bk4: 1364a 65283i bk5: 1364a 64689i bk6: 1408a 63666i bk7: 1408a 63461i bk8: 1408a 65721i bk9: 1408a 65185i bk10: 1368a 66058i bk11: 1368a 64927i bk12: 1344a 66755i bk13: 1344a 65539i bk14: 1344a 65068i bk15: 1344a 64389i 
dram_util_bins: 0 0 0 0 0 0 0 0 0 0
dram_eff_bins: 0 0 0 0 0 0 0 0 0 0
mrqq: max=15 avg=1.45516
Memory Partition 2: 
Cache L2_bank_004:
MSHR contents

Cache L2_bank_005:
MSHR contents

In Dram Latency Queue (total = 0): 
DRAM[2]: 16 bks, busW=4 BL=8 CL=12, tRRD=2 tCCD=6, tRCD=12 tRAS=28 tRP=12 tRC=40
n_cmd=87844 n_nop=49884 n_act=8062 n_pre=8046 n_req=10926 n_rd=21852 n_write=0 bw_util=0.4975
n_activity=79217 dram_eff=0.5517
bk0: 1348a 64595i bk1: 1344a 65234i bk2: 1344a 65551i bk3: 1344a 66049i bk4: 1364a 65028i bk5: 1368a 63906i bk6: 1408a 62391i bk7: 1408a 62279i bk8: 1408a 65000i bk9: 1408a 65614i bk10: 1368a 64802i bk11: 1364a 64044i bk12: 1344a 65017i bk13: 1344a 66191i bk14: 1344a 65385i bk15: 1344a 64751i 
dram_util_bins: 0 0 0 0 0 0 0 0 0 0
dram_eff_bins: 0 0 0 0 0 0 0 0 0 0
mrqq: max=16 avg=1.65674
Memory Partition 3: 
Cache L2_bank_006:
MSHR contents

Cache L2_bank_007:
MSHR contents

In Dram Latency Queue (total = 0): 
DRAM[3]: 16 bks, busW=4 BL=8 CL=12, tRRD=2 tCCD=6, tRCD=12 tRAS=28 tRP=12 tRC=40
n_cmd=87844 n_nop=49850 n_act=8080 n_pre=8064 n_req=10925 n_rd=21850 n_write=0 bw_util=0.4975
n_activity=78681 dram_eff=0.5554
bk0: 1346a 64636i bk1: 1344a 65615i bk2: 1344a 65621i bk3: 1344a 65226i bk4: 1364a 64875i bk5: 1368a 63686i bk6: 1408a 62805i bk7: 1408a 62364i bk8: 1408a 65525i bk9: 1408a 64474i bk10: 1368a 64621i bk11: 1364a 64736i bk12: 1344a 64046i bk13: 1344a 65277i bk14: 1344a 64688i bk15: 1344a 63505i 
dram_util_bins: 0 0 0 0 0 0 0 0 0 0
dram_eff_bins: 0 0 0 0 0 0 0 0 0 0
mrqq: max=16 avg=1.83233
Memory Partition 4: 
Cache L2_bank_008:
MSHR contents

Cache L2_bank_009:
MSHR contents

In Dram Latency Queue (total = 0): 
DRAM[4]: 16 bks, busW=4 BL=8 CL=12, tRRD=2 tCCD=6, tRCD=12 tRAS=28 tRP=12 tRC=40
n_cmd=87844 n_nop=49826 n_act=8088 n_pre=8072 n_req=10931 n_rd=21850 n_write=8 bw_util=0.4977
n_activity=79428 dram_eff=0.5504
bk0: 1344a 64965i bk1: 1344a 65097i bk2: 1344a 65213i bk3: 1344a 64265i bk4: 1364a 62561i bk5: 1368a 64682i bk6: 1408a 60978i bk7: 1408a 62833i bk8: 1408a 65032i bk9: 1408a 65419i bk10: 1370a 63771i bk11: 1364a 64090i bk12: 1344a 65188i bk13: 1344a 64588i bk14: 1344a 64426i bk15: 1344a 64679i 
dram_util_bins: 0 0 0 0 0 0 0 0 0 0
dram_eff_bins: 0 0 0 0 0 0 0 0 0 0
mrqq: max=16 avg=1.82076
Memory Partition 5: 
Cache L2_bank_010:
MSHR contents

Cache L2_bank_011:
MSHR contents

In Dram Latency Queue (total = 0): 
DRAM[5]: 16 bks, busW=4 BL=8 CL=12, tRRD=2 tCCD=6, tRCD=12 tRAS=28 tRP=12 tRC=40
n_cmd=87844 n_nop=49814 n_act=8097 n_pre=8081 n_req=10927 n_rd=21848 n_write=4 bw_util=0.4975
n_activity=79052 dram_eff=0.5529
bk0: 1344a 65670i bk1: 1344a 64758i bk2: 1344a 64935i bk3: 1344a 65272i bk4: 1364a 65352i bk5: 1368a 62818i bk6: 1408a 63562i bk7: 1408a 62511i bk8: 1408a 65207i bk9: 1408a 65160i bk10: 1368a 64415i bk11: 1364a 64331i bk12: 1344a 65866i bk13: 1344a 64572i bk14: 1344a 64705i bk15: 1344a 63161i 
dram_util_bins: 0 0 0 0 0 0 0 0 0 0
dram_eff_bins: 0 0 0 0 0 0 0 0 0 0
mrqq: max=16 avg=1.71586

========= L2 cache stats =========
L2_cache_bank[0]: Access = 5507, Miss = 5465, Miss_rate = 0.992, Pending_hits = 9, Reservation_fails = 1770
L2_cache_bank[1]: Access = 5524, Miss = 5462, Miss_rate = 0.989, Pending_hits = 0, Reservation_fails = 152
L2_cache_bank[2]: Access = 5492, Miss = 5464, Miss_rate = 0.995, Pending_hits = 6, Reservation_fails = 440
L2_cache_bank[3]: Access = 5524, Miss = 5462, Miss_rate = 0.989, Pending_hits = 0, Reservation_fails = 254
L2_cache_bank[4]: Access = 5492, Miss = 5464, Miss_rate = 0.995, Pending_hits = 3, Reservation_fails = 304
L2_cache_bank[5]: Access = 5462, Miss = 5462, Miss_rate = 1.000, Pending_hits = 0, Reservation_fails = 626
L2_cache_bank[6]: Access = 5477, Miss = 5463, Miss_rate = 0.997, Pending_hits = 3, Reservation_fails = 375
L2_cache_bank[7]: Access = 5462, Miss = 5462, Miss_rate = 1.000, Pending_hits = 0, Reservation_fails = 617
L2_cache_bank[8]: Access = 5524, Miss = 5463, Miss_rate = 0.989, Pending_hits = 1, Reservation_fails = 1457
L2_cache_bank[9]: Access = 5462, Miss = 5462, Miss_rate = 1.000, Pending_hits = 0, Reservation_fails = 275
L2_cache_bank[10]: Access = 5524, Miss = 5462, Miss_rate = 0.989, Pending_hits = 0, Reservation_fails = 230
L2_cache_bank[11]: Access = 5462, Miss = 5462, Miss_rate = 1.000, Pending_hits = 0, Reservation_fails = 546
L2_total_cache_accesses = 65912
L2_total_cache_misses = 65553
L2_total_cache_miss_rate = 0.9946
L2_total_cache_pending_hits = 22
L2_total_cache_reservation_fails = 7046
L2_total_cache_breakdown:
	L2_cache_stats_breakdown[GLOBAL_ACC_R][MISS] = 65536
	L2_cache_stats_breakdown[GLOBAL_ACC_R][RESERVATION_FAIL] = 6498
	L2_cache_stats_breakdown[CONST_ACC_R][HIT] = 11
	L2_cache_stats_breakdown[CONST_ACC_R][HIT_RESERVED] = 3
	L2_cache_stats_breakdown[CONST_ACC_R][MISS] = 1
	L2_cache_stats_breakdown[CONST_ACC_R][RESERVATION_FAIL] = 108
	L2_cache_stats_breakdown[GLOBAL_ACC_W][HIT] = 246
	L2_cache_stats_breakdown[GLOBAL_ACC_W][HIT_RESERVED] = 1
	L2_cache_stats_breakdown[GLOBAL_ACC_W][MISS] = 9
	L2_cache_stats_breakdown[INST_ACC_R][HIT] = 80
	L2_cache_stats_breakdown[INST_ACC_R][HIT_RESERVED] = 18
	L2_cache_stats_breakdown[INST_ACC_R][MISS] = 7
	L2_cache_stats_breakdown[INST_ACC_R][RESERVATION_FAIL] = 440
L2_cache_data_port_util = 0.001
L2_cache_fill_port_util = 0.328

icnt_total_pkts_mem_to_simt=328506
icnt_total_pkts_simt_to_mem=66168
LD_mem_lat_dist  0 0 0 0 0 0 0 0 0 0 0 0 0 0 0 0 0 0 0 0 0 0 0 0 0 0 0
ST_mem_lat_dist  0 0 0 0 0 0 0 0 0 0 0 0 0 0 0 0 0 0 0 0 0 0 0 0 0 0 0
----------------------------Interconnect-DETAILS--------------------------------
Class 0:
Packet latency average = 17.4312
	minimum = 6
	maximum = 167
Network latency average = 14.2452
	minimum = 6
	maximum = 167
Slowest packet = 23427
Flit latency average = 13.9868
	minimum = 6
	maximum = 167
Slowest flit = 69449
Fragmentation average = 0
	minimum = 0
	maximum = 0
Injected packet rate average = 0.073365
	minimum = 0.0619093 (at node 0)
	maximum = 0.0830065 (at node 16)
Accepted packet rate average = 0.073365
	minimum = 0.0619093 (at node 0)
	maximum = 0.0830065 (at node 16)
Injected flit rate average = 0.219651
	minimum = 0.0621497 (at node 0)
	maximum = 0.413304 (at node 15)
Accepted flit rate average= 0.219651
	minimum = 0.0820749 (at node 20)
	maximum = 0.347053 (at node 1)
Injected packet length average = 2.99395
Accepted packet length average = 2.99395
Total in-flight flits = 0 (0 measured)
====== Overall Traffic Statistics ======
====== Traffic class 0 ======
Packet latency average = 17.4312 (1 samples)
	minimum = 6 (1 samples)
	maximum = 167 (1 samples)
Network latency average = 14.2452 (1 samples)
	minimum = 6 (1 samples)
	maximum = 167 (1 samples)
Flit latency average = 13.9868 (1 samples)
	minimum = 6 (1 samples)
	maximum = 167 (1 samples)
Fragmentation average = 0 (1 samples)
	minimum = 0 (1 samples)
	maximum = 0 (1 samples)
Injected packet rate average = 0.073365 (1 samples)
	minimum = 0.0619093 (1 samples)
	maximum = 0.0830065 (1 samples)
Accepted packet rate average = 0.073365 (1 samples)
	minimum = 0.0619093 (1 samples)
	maximum = 0.0830065 (1 samples)
Injected flit rate average = 0.219651 (1 samples)
	minimum = 0.0621497 (1 samples)
	maximum = 0.413304 (1 samples)
Accepted flit rate average = 0.219651 (1 samples)
	minimum = 0.0820749 (1 samples)
	maximum = 0.347053 (1 samples)
Injected packet size average = 2.99395 (1 samples)
Accepted packet size average = 2.99395 (1 samples)
Hops average = 1 (1 samples)
----------------------------END-of-Interconnect-DETAILS-------------------------


gpgpu_simulation_time = 0 days, 0 hrs, 1 min, 16 sec (76 sec)
gpgpu_simulation_rate = 321600 (inst/sec)
gpgpu_simulation_rate = 875 (cycle/sec)
GPGPU-Sim: synchronize waiting for inactive GPU simulation
GPGPU-Sim API: Stream Manager State
GPGPU-Sim: detected inactive GPU simulation thread
GPU time: 75591.835938 msecs.
Reading back GPU result...
Checking GPU results...
..running CPU scalar product calculation
...comparing the results
L1 error: 3.070748E-08
TEST PASSED
Shutting down...
