

        *** GPGPU-Sim Simulator Version 3.2.2  [build 0] ***


GPGPU-Sim PTX: simulation mode 0 (can change with PTX_SIM_MODE_FUNC environment variable:
               1=functional simulation only, 0=detailed performance simulator)
GPGPU-Sim: Configuration options:

-network_mode                           1 # Interconnection network mode
-inter_config_file   config_fermi_islip.icnt # Interconnection network config file
-gpgpu_ptx_use_cuobjdump                    1 # Use cuobjdump to extract ptx and sass from binaries
-gpgpu_experimental_lib_support                    0 # Try to extract code from cuda libraries [Broken because of unknown cudaGetExportTable]
-gpgpu_ptx_convert_to_ptxplus                    0 # Convert SASS (native ISA) to ptxplus and run ptxplus
-gpgpu_ptx_force_max_capability                   20 # Force maximum compute capability
-gpgpu_ptx_inst_debug_to_file                    0 # Dump executed instructions' debug information to file
-gpgpu_ptx_inst_debug_file       inst_debug.txt # Executed instructions' debug output file
-gpgpu_ptx_inst_debug_thread_uid                    1 # Thread UID for executed instructions' debug output
-gpgpu_simd_model                       1 # 1 = post-dominator
-gpgpu_shader_core_pipeline              1536:32 # shader core pipeline config, i.e., {<nthread>:<warpsize>}
-gpgpu_tex_cache:l1  4:128:24,L:R:m:N:L,F:128:4,128:2 # per-shader L1 texture cache  (READ-ONLY) config  {<nsets>:<bsize>:<assoc>,<rep>:<wr>:<alloc>:<wr_alloc>,<mshr>:<N>:<merge>,<mq>:<rf>}
-gpgpu_const_cache:l1 64:64:2,L:R:f:N:L,A:2:32,4 # per-shader L1 constant memory cache  (READ-ONLY) config  {<nsets>:<bsize>:<assoc>,<rep>:<wr>:<alloc>:<wr_alloc>,<mshr>:<N>:<merge>,<mq>} 
-gpgpu_cache:il1     4:128:4,L:R:f:N:L,A:2:32,4 # shader L1 instruction cache config  {<nsets>:<bsize>:<assoc>,<rep>:<wr>:<alloc>:<wr_alloc>,<mshr>:<N>:<merge>,<mq>} 
-gpgpu_cache:dl1     64:128:4,L:L:m:N:H,A:32:8,8 # per-shader L1 data cache config  {<nsets>:<bsize>:<assoc>,<rep>:<wr>:<alloc>:<wr_alloc>,<mshr>:<N>:<merge>,<mq> | none}
-gpgpu_cache:dl1PrefL1                 none # per-shader L1 data cache config  {<nsets>:<bsize>:<assoc>,<rep>:<wr>:<alloc>:<wr_alloc>,<mshr>:<N>:<merge>,<mq> | none}
-gpgpu_cache:dl1PreShared                 none # per-shader L1 data cache config  {<nsets>:<bsize>:<assoc>,<rep>:<wr>:<alloc>:<wr_alloc>,<mshr>:<N>:<merge>,<mq> | none}
-gmem_skip_L1D                          0 # global memory access skip L1D cache (implements -Xptxas -dlcm=cg, default=no skip)
-gpgpu_perfect_mem                      0 # enable perfect memory mode (no cache miss)
-n_regfile_gating_group                    4 # group of lanes that should be read/written together)
-gpgpu_clock_gated_reg_file                    0 # enable clock gated reg file for power calculations
-gpgpu_clock_gated_lanes                    0 # enable clock gated lanes for power calculations
-gpgpu_shader_registers                32768 # Number of registers per shader core. Limits number of concurrent CTAs. (default 8192)
-gpgpu_shader_cta                       8 # Maximum number of concurrent CTAs in shader (default 8)
-gpgpu_num_cta_barriers                   16 # Maximum number of named barriers per CTA (default 16)
-gpgpu_n_clusters                      15 # number of processing clusters
-gpgpu_n_cores_per_cluster                    1 # number of simd cores per cluster
-gpgpu_n_cluster_ejection_buffer_size                    8 # number of packets in ejection buffer
-gpgpu_n_ldst_response_buffer_size                    2 # number of response packets in ld/st unit ejection buffer
-gpgpu_shmem_size                   16384 # Size of shared memory per shader core (default 16kB)
-gpgpu_shmem_size                   49152 # Size of shared memory per shader core (default 16kB)
-gpgpu_shmem_size_PrefL1                16384 # Size of shared memory per shader core (default 16kB)
-gpgpu_shmem_size_PrefShared                16384 # Size of shared memory per shader core (default 16kB)
-gpgpu_shmem_num_banks                   32 # Number of banks in the shared memory in each shader core (default 16)
-gpgpu_shmem_limited_broadcast                    0 # Limit shared memory to do one broadcast per cycle (default on)
-gpgpu_shmem_warp_parts                    1 # Number of portions a warp is divided into for shared memory bank conflict check 
-gpgpu_warpdistro_shader                   -1 # Specify which shader core to collect the warp size distribution from
-gpgpu_warp_issue_shader                    0 # Specify which shader core to collect the warp issue distribution from
-gpgpu_local_mem_map                    1 # Mapping from local memory space address to simulated GPU physical address space (default = enabled)
-gpgpu_num_reg_banks                   16 # Number of register banks (default = 8)
-gpgpu_reg_bank_use_warp_id                    0 # Use warp ID in mapping registers to banks (default = off)
-gpgpu_operand_collector_num_units_sp                    6 # number of collector units (default = 4)
-gpgpu_operand_collector_num_units_sfu                    8 # number of collector units (default = 4)
-gpgpu_operand_collector_num_units_mem                    2 # number of collector units (default = 2)
-gpgpu_operand_collector_num_units_gen                    0 # number of collector units (default = 0)
-gpgpu_operand_collector_num_in_ports_sp                    2 # number of collector unit in ports (default = 1)
-gpgpu_operand_collector_num_in_ports_sfu                    1 # number of collector unit in ports (default = 1)
-gpgpu_operand_collector_num_in_ports_mem                    1 # number of collector unit in ports (default = 1)
-gpgpu_operand_collector_num_in_ports_gen                    0 # number of collector unit in ports (default = 0)
-gpgpu_operand_collector_num_out_ports_sp                    2 # number of collector unit in ports (default = 1)
-gpgpu_operand_collector_num_out_ports_sfu                    1 # number of collector unit in ports (default = 1)
-gpgpu_operand_collector_num_out_ports_mem                    1 # number of collector unit in ports (default = 1)
-gpgpu_operand_collector_num_out_ports_gen                    0 # number of collector unit in ports (default = 0)
-gpgpu_coalesce_arch                   13 # Coalescing arch (default = 13, anything else is off for now)
-gpgpu_num_sched_per_core                    2 # Number of warp schedulers per core
-gpgpu_max_insn_issue_per_warp                    1 # Max number of instructions that can be issued per warp in one cycle by scheduler
-gpgpu_simt_core_sim_order                    1 # Select the simulation order of cores in a cluster (0=Fix, 1=Round-Robin)
-gpgpu_pipeline_widths        2,1,1,2,1,1,2 # Pipeline widths ID_OC_SP,ID_OC_SFU,ID_OC_MEM,OC_EX_SP,OC_EX_SFU,OC_EX_MEM,EX_WB
-gpgpu_num_sp_units                     2 # Number of SP units (default=1)
-gpgpu_num_sfu_units                    1 # Number of SF units (default=1)
-gpgpu_num_mem_units                    1 # Number if ldst units (default=1) WARNING: not hooked up to anything
-gpgpu_scheduler                      gto # Scheduler configuration: < lrr | gto | two_level_active > If two_level_active:<num_active_warps>:<inner_prioritization>:<outer_prioritization>For complete list of prioritization values see shader.h enum scheduler_prioritization_typeDefault: gto
-gpgpu_dram_scheduler                    1 # 0 = fifo, 1 = FR-FCFS (defaul)
-gpgpu_dram_partition_queues              8:8:8:8 # i2$:$2d:d2$:$2i
-l2_ideal                               0 # Use a ideal L2 cache that always hit
-gpgpu_cache:dl2     64:128:8,L:B:m:W:L,A:32:4,4:0,32 # unified banked L2 data cache config  {<nsets>:<bsize>:<assoc>,<rep>:<wr>:<alloc>:<wr_alloc>,<mshr>:<N>:<merge>,<mq>}
-gpgpu_cache:dl2_texture_only                    0 # L2 cache used for texture only
-gpgpu_n_mem                            6 # number of memory modules (e.g. memory controllers) in gpu
-gpgpu_n_sub_partition_per_mchannel                    2 # number of memory subpartition in each memory module
-gpgpu_n_mem_per_ctrlr                    2 # number of memory chips per memory controller
-gpgpu_memlatency_stat                   14 # track and display latency statistics 0x2 enables MC, 0x4 enables queue logs
-gpgpu_frfcfs_dram_sched_queue_size                   16 # 0 = unlimited (default); # entries per chip
-gpgpu_dram_return_queue_size                  116 # 0 = unlimited (default); # entries per chip
-gpgpu_dram_buswidth                    4 # default = 4 bytes (8 bytes per cycle at DDR)
-gpgpu_dram_burst_length                    8 # Burst length of each DRAM request (default = 4 data bus cycle)
-dram_data_command_freq_ratio                    4 # Frequency ratio between DRAM data bus and command bus (default = 2 times, i.e. DDR)
-gpgpu_dram_timing_opt nbk=16:CCD=2:RRD=6:RCD=12:RAS=28:RP=12:RC=40: CL=12:WL=4:CDLR=5:WR=12:nbkgrp=4:CCDL=3:RTPL=2 # DRAM timing parameters = {nbk:tCCD:tRRD:tRCD:tRAS:tRP:tRC:CL:WL:tCDLR:tWR:nbkgrp:tCCDL:tRTPL}
-rop_latency                          120 # ROP queue latency (default 85)
-dram_latency                         100 # DRAM latency (default 30)
-gpgpu_mem_addr_mapping dramid@8;00000000.00000000.00000000.00000000.0000RRRR.RRRRRRRR.BBBCCCCB.CCSSSSSS # mapping memory address to dram model {dramid@<start bit>;<memory address map>}
-gpgpu_mem_addr_test                    0 # run sweep test to check address mapping for aliased address
-gpgpu_mem_address_mask                    1 # 0 = old addressing mask, 1 = new addressing mask, 2 = new add. mask + flipped bank sel and chip sel bits
-gpuwattch_xml_file  gpuwattch_gtx480.xml # GPUWattch XML file
-power_simulation_enabled                    1 # Turn on power simulator (1=On, 0=Off)
-power_per_cycle_dump                    0 # Dump detailed power output each cycle
-power_trace_enabled                    0 # produce a file for the power trace (1=On, 0=Off)
-power_trace_zlevel                     6 # Compression level of the power trace output log (0=no comp, 9=highest)
-steady_power_levels_enabled                    0 # produce a file for the steady power levels (1=On, 0=Off)
-steady_state_definition                  8:4 # allowed deviation:number of samples
-gpgpu_max_cycle                        0 # terminates gpu simulation early (0 = no limit)
-gpgpu_max_insn                         0 # terminates gpu simulation early (0 = no limit)
-gpgpu_max_cta                          0 # terminates gpu simulation early (0 = no limit)
-gpgpu_runtime_stat                   500 # display runtime statistics such as dram utilization {<freq>:<flag>}
-liveness_message_freq                    1 # Minimum number of seconds between simulation liveness messages (0 = always print)
-gpgpu_flush_l1_cache                    0 # Flush L1 cache at the end of each kernel call
-gpgpu_flush_l2_cache                    0 # Flush L2 cache at the end of each kernel call
-gpgpu_deadlock_detect                    1 # Stop the simulation at deadlock (1=on (default), 0=off)
-gpgpu_ptx_instruction_classification                    0 # if enabled will classify ptx instruction types per kernel (Max 255 kernels now)
-gpgpu_ptx_sim_mode                     0 # Select between Performance (default) or Functional simulation (1)
-gpgpu_clock_domains 700.0:700.0:700.0:924.0 # Clock Domain Frequencies in MhZ {<Core Clock>:<ICNT Clock>:<L2 Clock>:<DRAM Clock>}
-gpgpu_max_concurrent_kernel                    8 # maximum kernels that can run concurrently on GPU
-gpgpu_cflog_interval                    0 # Interval between each snapshot in control flow logger
-visualizer_enabled                     0 # Turn on visualizer output (1=On, 0=Off)
-visualizer_outputfile                 NULL # Specifies the output log file for visualizer
-visualizer_zlevel                      6 # Compression level of the visualizer output log (0=no comp, 9=highest)
-trace_enabled                          0 # Turn on traces
-trace_components                    none # comma seperated list of traces to enable. Complete list found in trace_streams.tup. Default none
-trace_sampling_core                    0 # The core which is printed using CORE_DPRINTF. Default 0
-trace_sampling_memory_partition                   -1 # The memory partition which is printed using MEMPART_DPRINTF. Default -1 (i.e. all)
-enable_ptx_file_line_stats                    1 # Turn on PTX source line statistic profiling. (1 = On)
-ptx_line_stats_filename gpgpu_inst_stats.txt # Output file for PTX source line statistics.
-save_embedded_ptx                      0 # saves ptx files embedded in binary as <n>.ptx
-keep                                   0 # keep intermediate files created by GPGPU-Sim when interfacing with external programs
-gpgpu_ptx_save_converted_ptxplus                    0 # Saved converted ptxplus to a file
-ptx_opcode_latency_int         4,13,4,5,145 # Opcode latencies for integers <ADD,MAX,MUL,MAD,DIV>Default 1,1,19,25,145
-ptx_opcode_latency_fp          4,13,4,5,39 # Opcode latencies for single precision floating points <ADD,MAX,MUL,MAD,DIV>Default 1,1,1,1,30
-ptx_opcode_latency_dp         8,19,8,8,330 # Opcode latencies for double precision floating points <ADD,MAX,MUL,MAD,DIV>Default 8,8,8,8,335
-ptx_opcode_initiation_int            1,2,2,1,8 # Opcode initiation intervals for integers <ADD,MAX,MUL,MAD,DIV>Default 1,1,4,4,32
-ptx_opcode_initiation_fp            1,2,1,1,4 # Opcode initiation intervals for single precision floating points <ADD,MAX,MUL,MAD,DIV>Default 1,1,1,1,5
-ptx_opcode_initiation_dp         8,16,8,8,130 # Opcode initiation intervals for double precision floating points <ADD,MAX,MUL,MAD,DIV>Default 8,8,8,8,130
DRAM Timing Options:
nbk                                    16 # number of banks
CCD                                     2 # column to column delay
RRD                                     6 # minimal delay between activation of rows in different banks
RCD                                    12 # row to column delay
RAS                                    28 # time needed to activate row
RP                                     12 # time needed to precharge (deactivate) row
RC                                     40 # row cycle time
CDLR                                    5 # switching from write to read (changes tWTR)
WR                                     12 # last data-in to row precharge
CL                                     12 # CAS latency
WL                                      4 # Write latency
nbkgrp                                  4 # number of bank groups
CCDL                                    3 # column to column delay between accesses to different bank groups
RTPL                                    2 # read to precharge delay between accesses to different bank groups
Total number of memory sub partition = 12
addr_dec_mask[CHIP]  = 0000000000000000 	high:64 low:0
addr_dec_mask[BK]    = 000000000000e100 	high:16 low:8
addr_dec_mask[ROW]   = 000000000fff0000 	high:28 low:16
addr_dec_mask[COL]   = 0000000000001eff 	high:13 low:0
addr_dec_mask[BURST] = 000000000000003f 	high:6 low:0
sub_partition_id_mask = 0000000000000100
GPGPU-Sim uArch: clock freqs: 700000000.000000:700000000.000000:700000000.000000:924000000.000000
GPGPU-Sim uArch: clock periods: 0.00000000142857142857:0.00000000142857142857:0.00000000142857142857:0.00000000108225108225
*** Initializing Memory Statistics ***
GPGPU-Sim uArch: interconnect node map (shaderID+MemID to icntID)
GPGPU-Sim uArch: Memory nodes ID start from index: 15
GPGPU-Sim uArch:    0   1   2   3   4
GPGPU-Sim uArch:    5   6   7   8   9
GPGPU-Sim uArch:   10  11  12  13  14
GPGPU-Sim uArch:   15  16  17  18  19
GPGPU-Sim uArch:   20  21  22  23  24
GPGPU-Sim uArch:   25  26
GPGPU-Sim uArch: interconnect node reverse map (icntID to shaderID+MemID)
GPGPU-Sim uArch: Memory nodes start from ID: 15
GPGPU-Sim uArch:    0   1   2   3   4
GPGPU-Sim uArch:    5   6   7   8   9
GPGPU-Sim uArch:   10  11  12  13  14
GPGPU-Sim uArch:   15  16  17  18  19
GPGPU-Sim uArch:   20  21  22  23  24
GPGPU-Sim uArch:   25  26
36bb1eeaa5c1ff7ca0ddea1af00eaab8  /home/scratch/adwait/applications/benchmarks/CUDA/NN/gpgpu_ptx_sim__NN
GPGPU-Sim uArch: performance model initialization complete.
GPGPU-Sim PTX: __cudaRegisterFatBinary, fat_cubin_handle = 1, filename=NN.cu
self exe links to: /home/scratch/adwait/applications/benchmarks/CUDA/NN/gpgpu_ptx_sim__NN
Running md5sum using "md5sum /home/scratch/adwait/applications/benchmarks/CUDA/NN/gpgpu_ptx_sim__NN "
Running cuobjdump using "$CUDA_INSTALL_PATH/bin/cuobjdump -ptx -elf -sass /home/scratch/adwait/applications/benchmarks/CUDA/NN/gpgpu_ptx_sim__NN > _cuobjdump_complete_output_ZL86Lx"
Parsing file _cuobjdump_complete_output_ZL86Lx
######### cuobjdump parser ########
## Adding new section ELF
Adding arch: sm_20
Adding identifier: NN.cu
## Adding new section PTX
Adding ptx filename: _cuobjdump_1.ptx
Adding arch: sm_20
Adding identifier: NN.cu
Done parsing!!!
GPGPU-Sim PTX: __cudaRegisterFunction _Z18executeFourthLayerPfS_S_ : hostFun 0x0x402a51, fat_cubin_handle = 1
GPGPU-Sim PTX: allocating constant region for "kernelTemplate" from 0x100 to 0x164 (global memory space) 1
GPGPU-Sim PTX: instruction assembly for function '_Z17executeFirstLayerPfS_S_'...   done.
GPGPU-Sim PTX: finding reconvergence points for '_Z17executeFirstLayerPfS_S_'...
GPGPU-Sim PTX: Finding dominators for '_Z17executeFirstLayerPfS_S_'...
GPGPU-Sim PTX: Finding immediate dominators for '_Z17executeFirstLayerPfS_S_'...
GPGPU-Sim PTX: Finding postdominators for '_Z17executeFirstLayerPfS_S_'...
GPGPU-Sim PTX: Finding immediate postdominators for '_Z17executeFirstLayerPfS_S_'...
GPGPU-Sim PTX: pre-decoding instructions for '_Z17executeFirstLayerPfS_S_'...
GPGPU-Sim PTX: reconvergence points for _Z17executeFirstLayerPfS_S_...
GPGPU-Sim PTX:  1 (potential) branch divergence @  PC=0x100 (_1.ptx:100) @%p1 bra $Lt_0_4098;
GPGPU-Sim PTX:    immediate post dominator      @  PC=0x108 (_1.ptx:102) cvt.f64.f32 %fd1, %f1;
GPGPU-Sim PTX:  2 (potential) branch divergence @  PC=0x148 (_1.ptx:110) @!%p2 bra $Lt_0_4866;
GPGPU-Sim PTX:    immediate post dominator      @  PC=0x2a8 (_1.ptx:162) cvt.f64.f32 %fd5, %f29;
GPGPU-Sim PTX:  3 (potential) branch divergence @  PC=0x230 (_1.ptx:142) bra.uni $Lt_0_4610;
GPGPU-Sim PTX:    immediate post dominator      @  PC=0x2a8 (_1.ptx:162) cvt.f64.f32 %fd5, %f29;
GPGPU-Sim PTX: ... end of reconvergence points for _Z17executeFirstLayerPfS_S_
GPGPU-Sim PTX: ... done pre-decoding instructions for '_Z17executeFirstLayerPfS_S_'.
GPGPU-Sim PTX: allocating constant region for "kernelTemplate2" from 0x180 to 0x1e4 (global memory space) 2
GPGPU-Sim PTX: instruction assembly for function '_Z18executeSecondLayerPfS_S_'...   done.
GPGPU-Sim PTX: finding reconvergence points for '_Z18executeSecondLayerPfS_S_'...
GPGPU-Sim PTX: Finding dominators for '_Z18executeSecondLayerPfS_S_'...
GPGPU-Sim PTX: Finding immediate dominators for '_Z18executeSecondLayerPfS_S_'...
GPGPU-Sim PTX: Finding postdominators for '_Z18executeSecondLayerPfS_S_'...
GPGPU-Sim PTX: Finding immediate postdominators for '_Z18executeSecondLayerPfS_S_'...
GPGPU-Sim PTX: pre-decoding instructions for '_Z18executeSecondLayerPfS_S_'...
GPGPU-Sim PTX: reconvergence points for _Z18executeSecondLayerPfS_S_...
GPGPU-Sim PTX:  1 (potential) branch divergence @  PC=0x4a0 (_1.ptx:251) @%p1 bra $Lt_1_5634;
GPGPU-Sim PTX:    immediate post dominator      @  PC=0x4a8 (_1.ptx:253) cvt.f64.f32 %fd1, %f1;
GPGPU-Sim PTX:  2 (potential) branch divergence @  PC=0x4e8 (_1.ptx:261) @!%p2 bra $Lt_1_6402;
GPGPU-Sim PTX:    immediate post dominator      @  PC=0x648 (_1.ptx:313) cvt.f64.f32 %fd5, %f44;
GPGPU-Sim PTX:  3 (potential) branch divergence @  PC=0x5d0 (_1.ptx:293) bra.uni $Lt_1_6146;
GPGPU-Sim PTX:    immediate post dominator      @  PC=0x648 (_1.ptx:313) cvt.f64.f32 %fd5, %f44;
GPGPU-Sim PTX: ... end of reconvergence points for _Z18executeSecondLayerPfS_S_
GPGPU-Sim PTX: ... done pre-decoding instructions for '_Z18executeSecondLayerPfS_S_'.
GPGPU-Sim PTX: instruction assembly for function '_Z17executeThirdLayerPfS_S_'...   done.
GPGPU-Sim PTX: finding reconvergence points for '_Z17executeThirdLayerPfS_S_'...
GPGPU-Sim PTX: Finding dominators for '_Z17executeThirdLayerPfS_S_'...
GPGPU-Sim PTX: Finding immediate dominators for '_Z17executeThirdLayerPfS_S_'...
GPGPU-Sim PTX: Finding postdominators for '_Z17executeThirdLayerPfS_S_'...
GPGPU-Sim PTX: Finding immediate postdominators for '_Z17executeThirdLayerPfS_S_'...
GPGPU-Sim PTX: pre-decoding instructions for '_Z17executeThirdLayerPfS_S_'...
GPGPU-Sim PTX: reconvergence points for _Z17executeThirdLayerPfS_S_...
GPGPU-Sim PTX:  1 (potential) branch divergence @  PC=0x788 (_1.ptx:373) @%p1 bra $Lt_2_4098;
GPGPU-Sim PTX:    immediate post dominator      @  PC=0x790 (_1.ptx:375) cvt.f64.f32 %fd1, %f1;
GPGPU-Sim PTX:  2 (potential) branch divergence @  PC=0x7d0 (_1.ptx:383) @!%p2 bra $Lt_2_4866;
GPGPU-Sim PTX:    immediate post dominator      @  PC=0x930 (_1.ptx:435) cvt.f64.f32 %fd5, %f29;
GPGPU-Sim PTX:  3 (potential) branch divergence @  PC=0x8b8 (_1.ptx:415) bra.uni $Lt_2_4610;
GPGPU-Sim PTX:    immediate post dominator      @  PC=0x930 (_1.ptx:435) cvt.f64.f32 %fd5, %f29;
GPGPU-Sim PTX: ... end of reconvergence points for _Z17executeThirdLayerPfS_S_
GPGPU-Sim PTX: ... done pre-decoding instructions for '_Z17executeThirdLayerPfS_S_'.
GPGPU-Sim PTX: instruction assembly for function '_Z18executeFourthLayerPfS_S_'...   done.
GPGPU-Sim PTX: finding reconvergence points for '_Z18executeFourthLayerPfS_S_'...
GPGPU-Sim PTX: Finding dominators for '_Z18executeFourthLayerPfS_S_'...
GPGPU-Sim PTX: Finding immediate dominators for '_Z18executeFourthLayerPfS_S_'...
GPGPU-Sim PTX: Finding postdominators for '_Z18executeFourthLayerPfS_S_'...
GPGPU-Sim PTX: Finding immediate postdominators for '_Z18executeFourthLayerPfS_S_'...
GPGPU-Sim PTX: pre-decoding instructions for '_Z18executeFourthLayerPfS_S_'...
GPGPU-Sim PTX: reconvergence points for _Z18executeFourthLayerPfS_S_...
GPGPU-Sim PTX:  1 (potential) branch divergence @  PC=0xa50 (_1.ptx:491) @%p1 bra $Lt_3_4098;
GPGPU-Sim PTX:    immediate post dominator      @  PC=0xa58 (_1.ptx:493) cvt.f64.f32 %fd1, %f1;
GPGPU-Sim PTX:  2 (potential) branch divergence @  PC=0xa98 (_1.ptx:501) @!%p2 bra $Lt_3_4866;
GPGPU-Sim PTX:    immediate post dominator      @  PC=0xbf8 (_1.ptx:553) cvt.f64.f32 %fd5, %f29;
GPGPU-Sim PTX:  3 (potential) branch divergence @  PC=0xb80 (_1.ptx:533) bra.uni $Lt_3_4610;
GPGPU-Sim PTX:    immediate post dominator      @  PC=0xbf8 (_1.ptx:553) cvt.f64.f32 %fd5, %f29;
GPGPU-Sim PTX: ... end of reconvergence points for _Z18executeFourthLayerPfS_S_
GPGPU-Sim PTX: ... done pre-decoding instructions for '_Z18executeFourthLayerPfS_S_'.
GPGPU-Sim PTX: finished parsing EMBEDDED .ptx file _1.ptx
Adding _cuobjdump_1.ptx with cubin handle 1
GPGPU-Sim PTX: extracting embedded .ptx to temporary file "_ptx_DuNyyk"
Running: cat _ptx_DuNyyk | sed 's/.version 1.5/.version 1.4/' | sed 's/, texmode_independent//' | sed 's/\(\.extern \.const\[1\] .b8 \w\+\)\[\]/\1\[1\]/' | sed 's/const\[.\]/const\[0\]/g' > _ptx2_aTkkl7
GPGPU-Sim PTX: generating ptxinfo using "$CUDA_INSTALL_PATH/bin/ptxas --gpu-name=sm_20 -v _ptx2_aTkkl7 --output-file  /dev/null 2> _ptx_DuNyykinfo"
GPGPU-Sim PTX: Kernel '_Z18executeFourthLayerPfS_S_' : regs=12, lmem=0, smem=0, cmem=288
GPGPU-Sim PTX: Kernel '_Z17executeThirdLayerPfS_S_' : regs=12, lmem=0, smem=0, cmem=288
GPGPU-Sim PTX: Kernel '_Z18executeSecondLayerPfS_S_' : regs=22, lmem=0, smem=0, cmem=288
GPGPU-Sim PTX: Kernel '_Z17executeFirstLayerPfS_S_' : regs=17, lmem=0, smem=0, cmem=288
GPGPU-Sim PTX: removing ptxinfo using "rm -f _ptx_DuNyyk _ptx2_aTkkl7 _ptx_DuNyykinfo"
GPGPU-Sim PTX: loading globals with explicit initializers... 
GPGPU-Sim PTX: finished loading globals (0 bytes total).
GPGPU-Sim PTX: loading constants with explicit initializers...  done.
GPGPU-Sim PTX: __cudaRegisterFunction _Z17executeThirdLayerPfS_S_ : hostFun 0x0x40298f, fat_cubin_handle = 1
GPGPU-Sim PTX: __cudaRegisterFunction _Z18executeSecondLayerPfS_S_ : hostFun 0x0x4028cd, fat_cubin_handle = 1
GPGPU-Sim PTX: __cudaRegisterFunction _Z17executeFirstLayerPfS_S_ : hostFun 0x0x40280b, fat_cubin_handle = 1
GPGPU-Sim PTX: __cudaRegisterVar: hostVar = 0x60a180; deviceAddress = kernelTemplate; deviceName = kernelTemplate
GPGPU-Sim PTX: __cudaRegisterVar: Registering const memory space of 100 bytes
GPGPU-Sim PTX registering constant kernelTemplate (100 bytes) to name mapping
GPGPU-Sim PTX: __cudaRegisterVar: hostVar = 0x60a200; deviceAddress = kernelTemplate2; deviceName = kernelTemplate2
GPGPU-Sim PTX: __cudaRegisterVar: Registering const memory space of 100 bytes
GPGPU-Sim PTX registering constant kernelTemplate2 (100 bytes) to name mapping
magic number = 2051
number of items = 10000
number of rows = 28
number of rows = 28
NUM=28

GPGPU-Sim PTX: cudaLaunch for 0x0x40280b (mode=performance simulation) on stream 0
GPGPU-Sim PTX: pushing kernel '_Z17executeFirstLayerPfS_S_' to stream 0, gridDim= (6,28,1) blockDim = (13,13,1) 
kernel '_Z17executeFirstLayerPfS_S_' transfer to GPU hardware scheduler
GPGPU-Sim uArch: Shader 1 bind to kernel 1 '_Z17executeFirstLayerPfS_S_'
GPGPU-Sim uArch: CTA/core = 8, limited by: threads regs cta_limit
GPGPU-Sim uArch: core:  1, cta: 0 initialized @(1,0)
GPGPU-Sim uArch: Shader 2 bind to kernel 1 '_Z17executeFirstLayerPfS_S_'
GPGPU-Sim uArch: core:  2, cta: 0 initialized @(1,0)
GPGPU-Sim uArch: Shader 3 bind to kernel 1 '_Z17executeFirstLayerPfS_S_'
GPGPU-Sim uArch: core:  3, cta: 0 initialized @(1,0)
GPGPU-Sim uArch: Shader 4 bind to kernel 1 '_Z17executeFirstLayerPfS_S_'
GPGPU-Sim uArch: core:  4, cta: 0 initialized @(1,0)
GPGPU-Sim uArch: Shader 5 bind to kernel 1 '_Z17executeFirstLayerPfS_S_'
GPGPU-Sim uArch: core:  5, cta: 0 initialized @(1,0)
GPGPU-Sim uArch: Shader 6 bind to kernel 1 '_Z17executeFirstLayerPfS_S_'
GPGPU-Sim uArch: core:  6, cta: 0 initialized @(1,0)
GPGPU-Sim uArch: Shader 7 bind to kernel 1 '_Z17executeFirstLayerPfS_S_'
GPGPU-Sim uArch: core:  7, cta: 0 initialized @(1,0)
GPGPU-Sim uArch: Shader 8 bind to kernel 1 '_Z17executeFirstLayerPfS_S_'
GPGPU-Sim uArch: core:  8, cta: 0 initialized @(1,0)
GPGPU-Sim uArch: Shader 9 bind to kernel 1 '_Z17executeFirstLayerPfS_S_'
GPGPU-Sim uArch: core:  9, cta: 0 initialized @(1,0)
GPGPU-Sim uArch: Shader 10 bind to kernel 1 '_Z17executeFirstLayerPfS_S_'
GPGPU-Sim uArch: core: 10, cta: 0 initialized @(1,0)
GPGPU-Sim uArch: Shader 11 bind to kernel 1 '_Z17executeFirstLayerPfS_S_'
GPGPU-Sim uArch: core: 11, cta: 0 initialized @(1,0)
GPGPU-Sim uArch: Shader 12 bind to kernel 1 '_Z17executeFirstLayerPfS_S_'
GPGPU-Sim uArch: core: 12, cta: 0 initialized @(1,0)
GPGPU-Sim uArch: Shader 13 bind to kernel 1 '_Z17executeFirstLayerPfS_S_'
GPGPU-Sim uArch: core: 13, cta: 0 initialized @(1,0)
GPGPU-Sim uArch: Shader 14 bind to kernel 1 '_Z17executeFirstLayerPfS_S_'
GPGPU-Sim uArch: core: 14, cta: 0 initialized @(1,0)
GPGPU-Sim uArch: Shader 0 bind to kernel 1 '_Z17executeFirstLayerPfS_S_'
GPGPU-Sim uArch: core:  0, cta: 0 initialized @(1,0)
GPGPU-Sim uArch: core:  1, cta: 1 initialized @(2,0)
GPGPU-Sim uArch: core:  2, cta: 1 initialized @(2,0)
GPGPU-Sim uArch: core:  3, cta: 1 initialized @(2,0)
GPGPU-Sim uArch: core:  4, cta: 1 initialized @(2,0)
GPGPU-Sim uArch: core:  5, cta: 1 initialized @(2,0)
GPGPU-Sim uArch: core:  6, cta: 1 initialized @(2,0)
GPGPU-Sim uArch: core:  7, cta: 1 initialized @(2,0)
GPGPU-Sim uArch: core:  8, cta: 1 initialized @(2,0)
GPGPU-Sim uArch: core:  9, cta: 1 initialized @(2,0)
GPGPU-Sim uArch: core: 10, cta: 1 initialized @(2,0)
GPGPU-Sim uArch: core: 11, cta: 1 initialized @(2,0)
GPGPU-Sim uArch: core: 12, cta: 1 initialized @(2,0)
GPGPU-Sim uArch: core: 13, cta: 1 initialized @(2,0)
GPGPU-Sim uArch: core: 14, cta: 1 initialized @(2,0)
GPGPU-Sim uArch: core:  0, cta: 1 initialized @(2,0)
GPGPU-Sim uArch: core:  1, cta: 2 initialized @(3,0)
GPGPU-Sim uArch: core:  2, cta: 2 initialized @(3,0)
GPGPU-Sim uArch: core:  3, cta: 2 initialized @(3,0)
GPGPU-Sim uArch: core:  4, cta: 2 initialized @(3,0)
GPGPU-Sim uArch: core:  5, cta: 2 initialized @(3,0)
GPGPU-Sim uArch: core:  6, cta: 2 initialized @(3,0)
GPGPU-Sim uArch: core:  7, cta: 2 initialized @(3,0)
GPGPU-Sim uArch: core:  8, cta: 2 initialized @(3,0)
GPGPU-Sim uArch: core:  9, cta: 2 initialized @(3,0)
GPGPU-Sim uArch: core: 10, cta: 2 initialized @(3,0)
GPGPU-Sim uArch: core: 11, cta: 2 initialized @(3,0)
GPGPU-Sim uArch: core: 12, cta: 2 initialized @(3,0)
GPGPU-Sim uArch: core: 13, cta: 2 initialized @(3,0)
GPGPU-Sim uArch: core: 14, cta: 2 initialized @(3,0)
GPGPU-Sim uArch: core:  0, cta: 2 initialized @(3,0)
GPGPU-Sim uArch: core:  1, cta: 3 initialized @(4,0)
GPGPU-Sim uArch: core:  2, cta: 3 initialized @(4,0)
GPGPU-Sim uArch: core:  3, cta: 3 initialized @(4,0)
GPGPU-Sim uArch: core:  4, cta: 3 initialized @(4,0)
GPGPU-Sim uArch: core:  5, cta: 3 initialized @(4,0)
GPGPU-Sim uArch: core:  6, cta: 3 initialized @(4,0)
GPGPU-Sim uArch: core:  7, cta: 3 initialized @(4,0)
GPGPU-Sim uArch: core:  8, cta: 3 initialized @(4,0)
GPGPU-Sim uArch: core:  9, cta: 3 initialized @(4,0)
GPGPU-Sim uArch: core: 10, cta: 3 initialized @(4,0)
GPGPU-Sim uArch: core: 11, cta: 3 initialized @(4,0)
GPGPU-Sim uArch: core: 12, cta: 3 initialized @(4,0)
GPGPU-Sim uArch: core: 13, cta: 3 initialized @(4,0)
GPGPU-Sim uArch: core: 14, cta: 3 initialized @(4,0)
GPGPU-Sim uArch: core:  0, cta: 3 initialized @(4,0)
GPGPU-Sim uArch: core:  1, cta: 4 initialized @(5,0)
GPGPU-Sim uArch: core:  2, cta: 4 initialized @(5,0)
GPGPU-Sim uArch: core:  3, cta: 4 initialized @(5,0)
GPGPU-Sim uArch: core:  4, cta: 4 initialized @(5,0)
GPGPU-Sim uArch: core:  5, cta: 4 initialized @(5,0)
GPGPU-Sim uArch: core:  6, cta: 4 initialized @(5,0)
GPGPU-Sim uArch: core:  7, cta: 4 initialized @(5,0)
GPGPU-Sim uArch: core:  8, cta: 4 initialized @(5,0)
GPGPU-Sim uArch: core:  9, cta: 4 initialized @(5,0)
GPGPU-Sim uArch: core: 10, cta: 4 initialized @(5,0)
GPGPU-Sim uArch: core: 11, cta: 4 initialized @(5,0)
GPGPU-Sim uArch: core: 12, cta: 4 initialized @(5,0)
GPGPU-Sim uArch: core: 13, cta: 4 initialized @(5,0)
GPGPU-Sim uArch: core: 14, cta: 4 initialized @(5,0)
GPGPU-Sim uArch: core:  0, cta: 4 initialized @(5,0)
GPGPU-Sim uArch: core:  1, cta: 5 initialized @(6,0)
GPGPU-Sim uArch: core:  2, cta: 5 initialized @(6,0)
GPGPU-Sim uArch: core:  3, cta: 5 initialized @(6,0)
GPGPU-Sim uArch: core:  4, cta: 5 initialized @(6,0)
GPGPU-Sim uArch: core:  5, cta: 5 initialized @(6,0)
GPGPU-Sim uArch: core:  6, cta: 5 initialized @(6,0)
GPGPU-Sim uArch: core:  7, cta: 5 initialized @(6,0)
GPGPU-Sim uArch: core:  8, cta: 5 initialized @(6,0)
GPGPU-Sim uArch: core:  9, cta: 5 initialized @(6,0)
GPGPU-Sim uArch: core: 10, cta: 5 initialized @(6,0)
GPGPU-Sim uArch: core: 11, cta: 5 initialized @(6,0)
GPGPU-Sim uArch: core: 12, cta: 5 initialized @(6,0)
GPGPU-Sim uArch: core: 13, cta: 5 initialized @(6,0)
GPGPU-Sim uArch: core: 14, cta: 5 initialized @(6,0)
GPGPU-Sim uArch: core:  0, cta: 5 initialized @(6,0)
GPGPU-Sim uArch: core:  1, cta: 6 initialized @(7,0)
GPGPU-Sim uArch: core:  2, cta: 6 initialized @(7,0)
GPGPU-Sim uArch: core:  3, cta: 6 initialized @(7,0)
GPGPU-Sim uArch: core:  4, cta: 6 initialized @(7,0)
GPGPU-Sim uArch: core:  5, cta: 6 initialized @(7,0)
GPGPU-Sim uArch: core:  6, cta: 6 initialized @(7,0)
GPGPU-Sim uArch: core:  7, cta: 6 initialized @(7,0)
GPGPU-Sim uArch: core:  8, cta: 6 initialized @(7,0)
GPGPU-Sim uArch: core:  9, cta: 6 initialized @(7,0)
GPGPU-Sim uArch: core: 10, cta: 6 initialized @(7,0)
GPGPU-Sim uArch: core: 11, cta: 6 initialized @(7,0)
GPGPU-Sim uArch: core: 12, cta: 6 initialized @(7,0)
GPGPU-Sim uArch: core: 13, cta: 6 initialized @(7,0)
GPGPU-Sim uArch: core: 14, cta: 6 initialized @(7,0)
GPGPU-Sim uArch: core:  0, cta: 6 initialized @(7,0)
GPGPU-Sim uArch: core:  1, cta: 7 initialized @(8,0)
GPGPU-Sim uArch: core:  2, cta: 7 initialized @(8,0)
GPGPU-Sim uArch: core:  3, cta: 7 initialized @(8,0)
GPGPU-Sim uArch: core:  4, cta: 7 initialized @(8,0)
GPGPU-Sim uArch: core:  5, cta: 7 initialized @(8,0)
GPGPU-Sim uArch: core:  6, cta: 7 initialized @(8,0)
GPGPU-Sim uArch: core:  7, cta: 7 initialized @(8,0)
GPGPU-Sim uArch: core:  8, cta: 7 initialized @(8,0)
GPGPU-Sim uArch: core:  9, cta: 7 initialized @(8,0)
GPGPU-Sim uArch: core: 10, cta: 7 initialized @(8,0)
GPGPU-Sim uArch: core: 11, cta: 7 initialized @(8,0)
GPGPU-Sim uArch: core: 12, cta: 7 initialized @(8,0)
GPGPU-Sim uArch: core: 13, cta: 7 initialized @(8,0)
GPGPU-Sim uArch: core: 14, cta: 7 initialized @(8,0)
GPGPU-Sim uArch: core:  0, cta: 7 initialized @(8,0)
GPGPU-Sim uArch: cycles simulated: 500  inst.: 70695 (ipc=141.4) sim_rate=70695 (inst/sec) elapsed = 0:0:00:01 / Tue Apr 16 16:56:31 2019
GPGPU-Sim PTX: 100000 instructions simulated : ctaid=(2,0,0) tid=(0,12,0)
GPGPU-Sim PTX: 200000 instructions simulated : ctaid=(5,7,0) tid=(8,5,0)
GPGPU-Sim PTX: 300000 instructions simulated : ctaid=(3,13,0) tid=(9,12,0)
GPGPU-Sim PTX: 400000 instructions simulated : ctaid=(0,0,0) tid=(9,5,0)
GPGPU-Sim uArch: cycles simulated: 1500  inst.: 491791 (ipc=327.9) sim_rate=245895 (inst/sec) elapsed = 0:0:00:02 / Tue Apr 16 16:56:32 2019
GPGPU-Sim PTX: 500000 instructions simulated : ctaid=(0,0,0) tid=(2,12,0)
GPGPU-Sim uArch: cycles simulated: 2500  inst.: 577195 (ipc=230.9) sim_rate=192398 (inst/sec) elapsed = 0:0:00:03 / Tue Apr 16 16:56:33 2019
GPGPU-Sim PTX: 600000 instructions simulated : ctaid=(2,0,0) tid=(4,11,0)
GPGPU-Sim PTX: 700000 instructions simulated : ctaid=(3,1,0) tid=(0,2,0)
GPGPU-Sim PTX: 800000 instructions simulated : ctaid=(5,9,0) tid=(7,0,0)
GPGPU-Sim PTX: 900000 instructions simulated : ctaid=(4,6,0) tid=(8,2,0)
GPGPU-Sim uArch: cycles simulated: 3500  inst.: 988781 (ipc=282.5) sim_rate=247195 (inst/sec) elapsed = 0:0:00:04 / Tue Apr 16 16:56:34 2019
GPGPU-Sim PTX: 1000000 instructions simulated : ctaid=(5,9,0) tid=(11,1,0)
GPGPU-Sim PTX: 1100000 instructions simulated : ctaid=(3,15,0) tid=(6,12,0)
GPGPU-Sim PTX: 1200000 instructions simulated : ctaid=(4,4,0) tid=(4,0,0)
GPGPU-Sim PTX: 1300000 instructions simulated : ctaid=(2,4,0) tid=(8,0,0)
GPGPU-Sim uArch: cycles simulated: 4000  inst.: 1297769 (ipc=324.4) sim_rate=259553 (inst/sec) elapsed = 0:0:00:05 / Tue Apr 16 16:56:35 2019
GPGPU-Sim PTX: 1400000 instructions simulated : ctaid=(5,4,0) tid=(0,2,0)
GPGPU-Sim PTX: 1500000 instructions simulated : ctaid=(3,6,0) tid=(7,5,0)
GPGPU-Sim PTX: 1600000 instructions simulated : ctaid=(3,6,0) tid=(4,12,0)
GPGPU-Sim PTX: 1700000 instructions simulated : ctaid=(4,1,0) tid=(1,0,0)
GPGPU-Sim PTX: 1800000 instructions simulated : ctaid=(2,4,0) tid=(3,0,0)
GPGPU-Sim PTX: 1900000 instructions simulated : ctaid=(4,12,0) tid=(12,3,0)
GPGPU-Sim uArch: cycles simulated: 5000  inst.: 1891217 (ipc=378.2) sim_rate=315202 (inst/sec) elapsed = 0:0:00:06 / Tue Apr 16 16:56:36 2019
GPGPU-Sim PTX: 2000000 instructions simulated : ctaid=(4,4,0) tid=(2,7,0)
GPGPU-Sim PTX: 2100000 instructions simulated : ctaid=(2,12,0) tid=(5,11,0)
GPGPU-Sim uArch: cycles simulated: 5500  inst.: 2153321 (ipc=391.5) sim_rate=307617 (inst/sec) elapsed = 0:0:00:07 / Tue Apr 16 16:56:37 2019
GPGPU-Sim PTX: 2200000 instructions simulated : ctaid=(5,1,0) tid=(2,3,0)
GPGPU-Sim PTX: 2300000 instructions simulated : ctaid=(4,2,0) tid=(5,6,0)
GPGPU-Sim PTX: 2400000 instructions simulated : ctaid=(3,10,0) tid=(0,2,0)
GPGPU-Sim uArch: cycles simulated: 6000  inst.: 2456144 (ipc=409.4) sim_rate=307018 (inst/sec) elapsed = 0:0:00:08 / Tue Apr 16 16:56:38 2019
GPGPU-Sim PTX: 2500000 instructions simulated : ctaid=(4,7,0) tid=(12,5,0)
GPGPU-Sim PTX: 2600000 instructions simulated : ctaid=(4,4,0) tid=(12,3,0)
GPGPU-Sim PTX: 2700000 instructions simulated : ctaid=(4,10,0) tid=(3,6,0)
GPGPU-Sim PTX: 2800000 instructions simulated : ctaid=(0,8,0) tid=(5,4,0)
GPGPU-Sim PTX: 2900000 instructions simulated : ctaid=(5,6,0) tid=(11,11,0)
GPGPU-Sim PTX: 3000000 instructions simulated : ctaid=(3,2,0) tid=(9,4,0)
GPGPU-Sim uArch: cycles simulated: 7000  inst.: 3038294 (ipc=434.0) sim_rate=337588 (inst/sec) elapsed = 0:0:00:09 / Tue Apr 16 16:56:39 2019
GPGPU-Sim PTX: 3100000 instructions simulated : ctaid=(5,11,0) tid=(12,10,0)
GPGPU-Sim PTX: 3200000 instructions simulated : ctaid=(2,3,0) tid=(12,5,0)
GPGPU-Sim PTX: 3300000 instructions simulated : ctaid=(3,4,0) tid=(8,11,0)
GPGPU-Sim uArch: cycles simulated: 7500  inst.: 3310549 (ipc=441.4) sim_rate=331054 (inst/sec) elapsed = 0:0:00:10 / Tue Apr 16 16:56:40 2019
GPGPU-Sim PTX: 3400000 instructions simulated : ctaid=(0,12,0) tid=(1,9,0)
GPGPU-Sim PTX: 3500000 instructions simulated : ctaid=(0,7,0) tid=(2,1,0)
GPGPU-Sim uArch: cycles simulated: 8000  inst.: 3550553 (ipc=443.8) sim_rate=322777 (inst/sec) elapsed = 0:0:00:11 / Tue Apr 16 16:56:41 2019
GPGPU-Sim PTX: 3600000 instructions simulated : ctaid=(1,10,0) tid=(1,4,0)
GPGPU-Sim PTX: 3700000 instructions simulated : ctaid=(2,5,0) tid=(8,5,0)
GPGPU-Sim PTX: 3800000 instructions simulated : ctaid=(1,8,0) tid=(2,2,0)
GPGPU-Sim PTX: 3900000 instructions simulated : ctaid=(3,8,0) tid=(5,4,0)
GPGPU-Sim uArch: cycles simulated: 9000  inst.: 3982756 (ipc=442.5) sim_rate=331896 (inst/sec) elapsed = 0:0:00:12 / Tue Apr 16 16:56:42 2019
GPGPU-Sim PTX: 4000000 instructions simulated : ctaid=(0,5,0) tid=(1,6,0)
GPGPU-Sim PTX: 4100000 instructions simulated : ctaid=(0,11,0) tid=(8,6,0)
GPGPU-Sim uArch: cycles simulated: 9500  inst.: 4174178 (ipc=439.4) sim_rate=321090 (inst/sec) elapsed = 0:0:00:13 / Tue Apr 16 16:56:43 2019
GPGPU-Sim PTX: 4200000 instructions simulated : ctaid=(5,9,0) tid=(11,12,0)
GPGPU-Sim PTX: 4300000 instructions simulated : ctaid=(3,6,0) tid=(6,4,0)
GPGPU-Sim PTX: 4400000 instructions simulated : ctaid=(3,8,0) tid=(4,11,0)
GPGPU-Sim PTX: 4500000 instructions simulated : ctaid=(2,6,0) tid=(10,4,0)
GPGPU-Sim uArch: cycles simulated: 10500  inst.: 4532308 (ipc=431.6) sim_rate=323736 (inst/sec) elapsed = 0:0:00:14 / Tue Apr 16 16:56:44 2019
GPGPU-Sim PTX: 4600000 instructions simulated : ctaid=(5,9,0) tid=(6,4,0)
GPGPU-Sim PTX: 4700000 instructions simulated : ctaid=(5,4,0) tid=(4,12,0)
GPGPU-Sim PTX: 4800000 instructions simulated : ctaid=(2,5,0) tid=(2,4,0)
GPGPU-Sim uArch: cycles simulated: 11500  inst.: 4872359 (ipc=423.7) sim_rate=324823 (inst/sec) elapsed = 0:0:00:15 / Tue Apr 16 16:56:45 2019
GPGPU-Sim PTX: 4900000 instructions simulated : ctaid=(2,1,0) tid=(0,0,0)
GPGPU-Sim PTX: 5000000 instructions simulated : ctaid=(5,15,0) tid=(5,10,0)
GPGPU-Sim uArch: cycles simulated: 12000  inst.: 5063847 (ipc=422.0) sim_rate=316490 (inst/sec) elapsed = 0:0:00:16 / Tue Apr 16 16:56:46 2019
GPGPU-Sim PTX: 5100000 instructions simulated : ctaid=(5,12,0) tid=(9,0,0)
GPGPU-Sim uArch: Shader 2 finished CTA #1 (12271,0), 7 CTAs running
GPGPU-Sim uArch: core:  2, cta: 1 initialized @(12272,0)
GPGPU-Sim PTX: 5200000 instructions simulated : ctaid=(5,4,0) tid=(7,11,0)
GPGPU-Sim PTX: 5300000 instructions simulated : ctaid=(3,12,0) tid=(12,1,0)
GPGPU-Sim uArch: Shader 10 finished CTA #0 (12604,0), 7 CTAs running
GPGPU-Sim uArch: core: 10, cta: 0 initialized @(12605,0)
GPGPU-Sim uArch: Shader 6 finished CTA #0 (12659,0), 7 CTAs running
GPGPU-Sim uArch: core:  6, cta: 0 initialized @(12660,0)
GPGPU-Sim PTX: 5400000 instructions simulated : ctaid=(1,15,0) tid=(5,11,0)
GPGPU-Sim uArch: Shader 11 finished CTA #0 (12851,0), 7 CTAs running
GPGPU-Sim uArch: core: 11, cta: 0 initialized @(12852,0)
GPGPU-Sim uArch: cycles simulated: 13000  inst.: 5473158 (ipc=421.0) sim_rate=321950 (inst/sec) elapsed = 0:0:00:17 / Tue Apr 16 16:56:47 2019
GPGPU-Sim PTX: 5500000 instructions simulated : ctaid=(4,10,0) tid=(1,11,0)
GPGPU-Sim uArch: Shader 12 finished CTA #0 (13049,0), 7 CTAs running
GPGPU-Sim uArch: core: 12, cta: 0 initialized @(13050,0)
GPGPU-Sim PTX: 5600000 instructions simulated : ctaid=(3,10,0) tid=(1,5,0)
GPGPU-Sim uArch: Shader 1 finished CTA #1 (13395,0), 7 CTAs running
GPGPU-Sim uArch: core:  1, cta: 1 initialized @(13396,0)
GPGPU-Sim uArch: Shader 4 finished CTA #0 (13436,0), 7 CTAs running
GPGPU-Sim uArch: core:  4, cta: 0 initialized @(13437,0)
GPGPU-Sim PTX: 5700000 instructions simulated : ctaid=(2,13,0) tid=(1,5,0)
GPGPU-Sim uArch: cycles simulated: 13500  inst.: 5680470 (ipc=420.8) sim_rate=315581 (inst/sec) elapsed = 0:0:00:18 / Tue Apr 16 16:56:48 2019
GPGPU-Sim PTX: 5800000 instructions simulated : ctaid=(1,12,0) tid=(3,6,0)
GPGPU-Sim PTX: 5900000 instructions simulated : ctaid=(4,6,0) tid=(7,11,0)
GPGPU-Sim uArch: Shader 12 finished CTA #1 (13970,0), 7 CTAs running
GPGPU-Sim uArch: core: 12, cta: 1 initialized @(13971,0)
GPGPU-Sim uArch: cycles simulated: 14000  inst.: 5914560 (ipc=422.5) sim_rate=311292 (inst/sec) elapsed = 0:0:00:19 / Tue Apr 16 16:56:49 2019
GPGPU-Sim uArch: Shader 3 finished CTA #1 (14030,0), 7 CTAs running
GPGPU-Sim uArch: core:  3, cta: 1 initialized @(14031,0)
GPGPU-Sim uArch: Shader 0 finished CTA #1 (14054,0), 7 CTAs running
GPGPU-Sim uArch: core:  0, cta: 1 initialized @(14055,0)
GPGPU-Sim PTX: 6000000 instructions simulated : ctaid=(1,18,0) tid=(7,6,0)
GPGPU-Sim uArch: Shader 13 finished CTA #1 (14202,0), 7 CTAs running
GPGPU-Sim uArch: core: 13, cta: 1 initialized @(14203,0)
GPGPU-Sim uArch: Shader 5 finished CTA #0 (14314,0), 7 CTAs running
GPGPU-Sim uArch: core:  5, cta: 0 initialized @(14315,0)
GPGPU-Sim PTX: 6100000 instructions simulated : ctaid=(1,20,0) tid=(7,11,0)
GPGPU-Sim uArch: Shader 0 finished CTA #2 (14428,0), 7 CTAs running
GPGPU-Sim uArch: core:  0, cta: 2 initialized @(14429,0)
GPGPU-Sim uArch: Shader 14 finished CTA #1 (14504,0), 7 CTAs running
GPGPU-Sim uArch: core: 14, cta: 1 initialized @(14505,0)
GPGPU-Sim PTX: 6200000 instructions simulated : ctaid=(5,19,0) tid=(4,7,0)
GPGPU-Sim PTX: 6300000 instructions simulated : ctaid=(4,20,0) tid=(3,12,0)
GPGPU-Sim uArch: Shader 4 finished CTA #3 (14711,0), 7 CTAs running
GPGPU-Sim uArch: core:  4, cta: 3 initialized @(14712,0)
GPGPU-Sim uArch: Shader 14 finished CTA #2 (14878,0), 7 CTAs running
GPGPU-Sim uArch: core: 14, cta: 2 initialized @(14879,0)
GPGPU-Sim PTX: 6400000 instructions simulated : ctaid=(1,14,0) tid=(5,4,0)
GPGPU-Sim uArch: Shader 10 finished CTA #3 (14961,0), 7 CTAs running
GPGPU-Sim uArch: core: 10, cta: 3 initialized @(14962,0)
GPGPU-Sim uArch: cycles simulated: 15000  inst.: 6429191 (ipc=428.6) sim_rate=321459 (inst/sec) elapsed = 0:0:00:20 / Tue Apr 16 16:56:50 2019
GPGPU-Sim uArch: Shader 13 finished CTA #2 (15056,0), 7 CTAs running
GPGPU-Sim uArch: core: 13, cta: 2 initialized @(15057,0)
GPGPU-Sim PTX: 6500000 instructions simulated : ctaid=(0,18,0) tid=(7,5,0)
GPGPU-Sim uArch: Shader 4 finished CTA #1 (15122,0), 7 CTAs running
GPGPU-Sim uArch: core:  4, cta: 1 initialized @(15123,0)
GPGPU-Sim uArch: Shader 11 finished CTA #3 (15140,0), 7 CTAs running
GPGPU-Sim uArch: core: 11, cta: 3 initialized @(15141,0)
GPGPU-Sim uArch: Shader 12 finished CTA #3 (15155,0), 7 CTAs running
GPGPU-Sim uArch: core: 12, cta: 3 initialized @(15156,0)
GPGPU-Sim PTX: 6600000 instructions simulated : ctaid=(1,20,0) tid=(7,1,0)
GPGPU-Sim PTX: 6700000 instructions simulated : ctaid=(3,11,0) tid=(11,11,0)
GPGPU-Sim uArch: Shader 11 finished CTA #1 (15487,0), 7 CTAs running
GPGPU-Sim uArch: core: 11, cta: 1 initialized @(15488,0)
GPGPU-Sim uArch: cycles simulated: 15500  inst.: 6725969 (ipc=433.9) sim_rate=320284 (inst/sec) elapsed = 0:0:00:21 / Tue Apr 16 16:56:51 2019
GPGPU-Sim uArch: Shader 2 finished CTA #2 (15572,0), 7 CTAs running
GPGPU-Sim uArch: core:  2, cta: 2 initialized @(15573,0)
GPGPU-Sim PTX: 6800000 instructions simulated : ctaid=(3,19,0) tid=(10,3,0)
GPGPU-Sim uArch: Shader 6 finished CTA #1 (15733,0), 7 CTAs running
GPGPU-Sim uArch: core:  6, cta: 1 initialized @(15734,0)
GPGPU-Sim PTX: 6900000 instructions simulated : ctaid=(5,8,0) tid=(5,6,0)
GPGPU-Sim uArch: Shader 9 finished CTA #1 (15761,0), 7 CTAs running
GPGPU-Sim uArch: core:  9, cta: 1 initialized @(15762,0)
GPGPU-Sim PTX: 7000000 instructions simulated : ctaid=(0,19,0) tid=(12,1,0)
GPGPU-Sim uArch: Shader 8 finished CTA #1 (15910,0), 7 CTAs running
GPGPU-Sim uArch: core:  8, cta: 1 initialized @(15911,0)
GPGPU-Sim uArch: Shader 6 finished CTA #3 (15945,0), 7 CTAs running
GPGPU-Sim uArch: core:  6, cta: 3 initialized @(15946,0)
GPGPU-Sim uArch: Shader 5 finished CTA #3 (15972,0), 7 CTAs running
GPGPU-Sim uArch: core:  5, cta: 3 initialized @(15973,0)
GPGPU-Sim uArch: Shader 7 finished CTA #1 (15998,0), 7 CTAs running
GPGPU-Sim uArch: core:  7, cta: 1 initialized @(15999,0)
GPGPU-Sim uArch: cycles simulated: 16000  inst.: 7039276 (ipc=440.0) sim_rate=319967 (inst/sec) elapsed = 0:0:00:22 / Tue Apr 16 16:56:52 2019
GPGPU-Sim PTX: 7100000 instructions simulated : ctaid=(1,20,0) tid=(3,9,0)
GPGPU-Sim PTX: 7200000 instructions simulated : ctaid=(0,16,0) tid=(2,9,0)
GPGPU-Sim PTX: 7300000 instructions simulated : ctaid=(2,5,0) tid=(6,4,0)
GPGPU-Sim uArch: Shader 5 finished CTA #1 (16353,0), 7 CTAs running
GPGPU-Sim uArch: core:  5, cta: 1 initialized @(16354,0)
GPGPU-Sim PTX: 7400000 instructions simulated : ctaid=(0,17,0) tid=(6,2,0)
GPGPU-Sim uArch: cycles simulated: 16500  inst.: 7373332 (ipc=446.9) sim_rate=320579 (inst/sec) elapsed = 0:0:00:23 / Tue Apr 16 16:56:53 2019
GPGPU-Sim uArch: Shader 10 finished CTA #1 (16615,0), 7 CTAs running
GPGPU-Sim uArch: core: 10, cta: 1 initialized @(16616,0)
GPGPU-Sim PTX: 7500000 instructions simulated : ctaid=(4,18,0) tid=(5,0,0)
GPGPU-Sim uArch: Shader 4 finished CTA #4 (16666,0), 7 CTAs running
GPGPU-Sim uArch: core:  4, cta: 4 initialized @(16667,0)
GPGPU-Sim uArch: Shader 8 finished CTA #2 (16779,0), 7 CTAs running
GPGPU-Sim uArch: Shader 13 finished CTA #0 (16779,0), 7 CTAs running
GPGPU-Sim uArch: core:  8, cta: 2 initialized @(16780,0)
GPGPU-Sim uArch: core: 13, cta: 0 initialized @(16780,0)
GPGPU-Sim PTX: 7600000 instructions simulated : ctaid=(3,12,0) tid=(8,3,0)
GPGPU-Sim uArch: Shader 4 finished CTA #2 (16863,0), 7 CTAs running
GPGPU-Sim uArch: core:  4, cta: 2 initialized @(16864,0)
GPGPU-Sim uArch: Shader 1 finished CTA #2 (16865,0), 7 CTAs running
GPGPU-Sim uArch: core:  1, cta: 2 initialized @(16866,0)
GPGPU-Sim uArch: Shader 5 finished CTA #4 (16880,0), 7 CTAs running
GPGPU-Sim uArch: core:  5, cta: 4 initialized @(16881,0)
GPGPU-Sim uArch: Shader 5 finished CTA #2 (16929,0), 7 CTAs running
GPGPU-Sim uArch: core:  5, cta: 2 initialized @(16930,0)
GPGPU-Sim PTX: 7700000 instructions simulated : ctaid=(4,19,0) tid=(2,9,0)
GPGPU-Sim uArch: cycles simulated: 17000  inst.: 7721332 (ipc=454.2) sim_rate=321722 (inst/sec) elapsed = 0:0:00:24 / Tue Apr 16 16:56:54 2019
GPGPU-Sim uArch: Shader 14 finished CTA #3 (17006,0), 7 CTAs running
GPGPU-Sim uArch: core: 14, cta: 3 initialized @(17007,0)
GPGPU-Sim PTX: 7800000 instructions simulated : ctaid=(5,23,0) tid=(1,6,0)
GPGPU-Sim uArch: Shader 7 finished CTA #2 (17138,0), 7 CTAs running
GPGPU-Sim uArch: core:  7, cta: 2 initialized @(17139,0)
GPGPU-Sim uArch: Shader 6 finished CTA #4 (17157,0), 7 CTAs running
GPGPU-Sim uArch: core:  6, cta: 4 initialized @(17158,0)
GPGPU-Sim uArch: Shader 3 finished CTA #2 (17199,0), 7 CTAs running
GPGPU-Sim uArch: core:  3, cta: 2 initialized @(17200,0)
GPGPU-Sim PTX: 7900000 instructions simulated : ctaid=(4,13,0) tid=(6,7,0)
GPGPU-Sim uArch: Shader 14 finished CTA #0 (17207,0), 7 CTAs running
GPGPU-Sim uArch: core: 14, cta: 0 initialized @(17208,0)
GPGPU-Sim uArch: Shader 3 finished CTA #4 (17213,0), 7 CTAs running
GPGPU-Sim uArch: core:  3, cta: 4 initialized @(17214,0)
GPGPU-Sim uArch: Shader 13 finished CTA #5 (17268,0), 7 CTAs running
GPGPU-Sim uArch: core: 13, cta: 5 initialized @(17269,0)
GPGPU-Sim uArch: Shader 0 finished CTA #0 (17294,0), 7 CTAs running
GPGPU-Sim uArch: core:  0, cta: 0 initialized @(17295,0)
GPGPU-Sim PTX: 8000000 instructions simulated : ctaid=(0,22,0) tid=(4,5,0)
GPGPU-Sim uArch: Shader 6 finished CTA #2 (17406,0), 7 CTAs running
GPGPU-Sim uArch: core:  6, cta: 2 initialized @(17407,0)
GPGPU-Sim uArch: Shader 2 finished CTA #0 (17449,0), 7 CTAs running
GPGPU-Sim uArch: core:  2, cta: 0 initialized @(17450,0)
GPGPU-Sim PTX: 8100000 instructions simulated : ctaid=(5,20,0) tid=(9,1,0)
GPGPU-Sim uArch: cycles simulated: 17500  inst.: 8084116 (ipc=461.9) sim_rate=323364 (inst/sec) elapsed = 0:0:00:25 / Tue Apr 16 16:56:55 2019
GPGPU-Sim uArch: Shader 2 finished CTA #4 (17569,0), 7 CTAs running
GPGPU-Sim uArch: Shader 0 finished CTA #3 (17597,0), 7 CTAs running
GPGPU-Sim PTX: 8200000 instructions simulated : ctaid=(3,16,0) tid=(5,3,0)
GPGPU-Sim uArch: Shader 11 finished CTA #2 (17617,0), 7 CTAs running
GPGPU-Sim uArch: Shader 9 finished CTA #2 (17622,0), 7 CTAs running
GPGPU-Sim uArch: Shader 1 finished CTA #4 (17645,0), 7 CTAs running
GPGPU-Sim uArch: Shader 11 finished CTA #4 (17733,0), 6 CTAs running
GPGPU-Sim PTX: 8300000 instructions simulated : ctaid=(2,24,0) tid=(3,10,0)
GPGPU-Sim uArch: Shader 3 finished CTA #0 (17778,0), 7 CTAs running
GPGPU-Sim uArch: Shader 0 finished CTA #5 (17845,0), 6 CTAs running
GPGPU-Sim PTX: 8400000 instructions simulated : ctaid=(0,23,0) tid=(10,0,0)
GPGPU-Sim uArch: Shader 14 finished CTA #5 (17929,0), 7 CTAs running
GPGPU-Sim uArch: Shader 9 finished CTA #0 (18035,0), 6 CTAs running
GPGPU-Sim PTX: 8500000 instructions simulated : ctaid=(0,19,0) tid=(1,4,0)
GPGPU-Sim uArch: Shader 10 finished CTA #4 (18069,0), 7 CTAs running
GPGPU-Sim uArch: Shader 7 finished CTA #0 (18093,0), 7 CTAs running
GPGPU-Sim uArch: Shader 13 finished CTA #6 (18128,0), 7 CTAs running
GPGPU-Sim uArch: Shader 13 finished CTA #3 (18148,0), 6 CTAs running
GPGPU-Sim uArch: Shader 12 finished CTA #4 (18166,0), 7 CTAs running
GPGPU-Sim PTX: 8600000 instructions simulated : ctaid=(4,17,0) tid=(12,5,0)
GPGPU-Sim uArch: Shader 8 finished CTA #0 (18227,0), 7 CTAs running
GPGPU-Sim uArch: Shader 1 finished CTA #0 (18229,0), 6 CTAs running
GPGPU-Sim uArch: Shader 3 finished CTA #3 (18257,0), 6 CTAs running
GPGPU-Sim uArch: Shader 0 finished CTA #4 (18279,0), 5 CTAs running
GPGPU-Sim uArch: Shader 13 finished CTA #4 (18280,0), 5 CTAs running
GPGPU-Sim PTX: 8700000 instructions simulated : ctaid=(1,11,0) tid=(0,7,0)
GPGPU-Sim uArch: Shader 10 finished CTA #2 (18341,0), 6 CTAs running
GPGPU-Sim uArch: Shader 2 finished CTA #3 (18395,0), 6 CTAs running
GPGPU-Sim uArch: Shader 12 finished CTA #2 (18395,0), 6 CTAs running
GPGPU-Sim uArch: Shader 1 finished CTA #3 (18407,0), 5 CTAs running
GPGPU-Sim PTX: 8800000 instructions simulated : ctaid=(3,24,0) tid=(3,0,0)
GPGPU-Sim uArch: cycles simulated: 18500  inst.: 8809646 (ipc=476.2) sim_rate=338832 (inst/sec) elapsed = 0:0:00:26 / Tue Apr 16 16:56:56 2019
GPGPU-Sim PTX: 8900000 instructions simulated : ctaid=(4,18,0) tid=(1,2,0)
GPGPU-Sim uArch: Shader 14 finished CTA #6 (18592,0), 6 CTAs running
GPGPU-Sim uArch: Shader 0 finished CTA #6 (18678,0), 4 CTAs running
GPGPU-Sim PTX: 9000000 instructions simulated : ctaid=(3,26,0) tid=(0,11,0)
GPGPU-Sim PTX: 9100000 instructions simulated : ctaid=(5,12,0) tid=(11,8,0)
GPGPU-Sim uArch: cycles simulated: 19000  inst.: 9165969 (ipc=482.4) sim_rate=339480 (inst/sec) elapsed = 0:0:00:27 / Tue Apr 16 16:56:57 2019
GPGPU-Sim PTX: 9200000 instructions simulated : ctaid=(2,22,0) tid=(9,2,0)
GPGPU-Sim uArch: Shader 2 finished CTA #5 (19103,0), 5 CTAs running
GPGPU-Sim uArch: Shader 11 finished CTA #5 (19109,0), 5 CTAs running
GPGPU-Sim PTX: 9300000 instructions simulated : ctaid=(1,20,0) tid=(9,11,0)
GPGPU-Sim uArch: Shader 12 finished CTA #5 (19172,0), 5 CTAs running
GPGPU-Sim uArch: Shader 1 finished CTA #5 (19233,0), 4 CTAs running
GPGPU-Sim uArch: Shader 10 finished CTA #5 (19270,0), 5 CTAs running
GPGPU-Sim PTX: 9400000 instructions simulated : ctaid=(0,19,0) tid=(8,0,0)
GPGPU-Sim uArch: Shader 2 finished CTA #6 (19291,0), 4 CTAs running
GPGPU-Sim PTX: 9500000 instructions simulated : ctaid=(4,20,0) tid=(6,6,0)
GPGPU-Sim uArch: Shader 5 finished CTA #5 (19497,0), 7 CTAs running
GPGPU-Sim uArch: cycles simulated: 19500  inst.: 9519061 (ipc=488.2) sim_rate=339966 (inst/sec) elapsed = 0:0:00:28 / Tue Apr 16 16:56:58 2019
GPGPU-Sim uArch: Shader 3 finished CTA #5 (19538,0), 5 CTAs running
GPGPU-Sim uArch: Shader 7 finished CTA #3 (19543,0), 6 CTAs running
GPGPU-Sim uArch: Shader 14 finished CTA #4 (19565,0), 5 CTAs running
GPGPU-Sim PTX: 9600000 instructions simulated : ctaid=(5,21,0) tid=(7,0,0)
GPGPU-Sim uArch: Shader 7 finished CTA #4 (19620,0), 5 CTAs running
GPGPU-Sim uArch: Shader 0 finished CTA #7 (19694,0), 3 CTAs running
GPGPU-Sim uArch: Shader 6 finished CTA #5 (19705,0), 7 CTAs running
GPGPU-Sim uArch: Shader 9 finished CTA #3 (19705,0), 5 CTAs running
GPGPU-Sim PTX: 9700000 instructions simulated : ctaid=(0,22,0) tid=(3,2,0)
GPGPU-Sim uArch: Shader 1 finished CTA #6 (19777,0), 3 CTAs running
GPGPU-Sim uArch: Shader 8 finished CTA #4 (19839,0), 6 CTAs running
GPGPU-Sim uArch: Shader 11 finished CTA #6 (19839,0), 4 CTAs running
GPGPU-Sim PTX: 9800000 instructions simulated : ctaid=(3,23,0) tid=(0,2,0)
GPGPU-Sim uArch: Shader 3 finished CTA #6 (19888,0), 4 CTAs running
GPGPU-Sim uArch: Shader 9 finished CTA #4 (19897,0), 4 CTAs running
GPGPU-Sim uArch: Shader 12 finished CTA #7 (19932,0), 4 CTAs running
GPGPU-Sim PTX: 9900000 instructions simulated : ctaid=(3,27,0) tid=(12,4,0)
GPGPU-Sim uArch: cycles simulated: 20000  inst.: 9867685 (ipc=493.4) sim_rate=340265 (inst/sec) elapsed = 0:0:00:29 / Tue Apr 16 16:56:59 2019
GPGPU-Sim uArch: Shader 8 finished CTA #3 (20041,0), 5 CTAs running
GPGPU-Sim uArch: Shader 12 finished CTA #6 (20083,0), 3 CTAs running
GPGPU-Sim PTX: 10000000 instructions simulated : ctaid=(5,26,0) tid=(8,3,0)
GPGPU-Sim uArch: Shader 11 finished CTA #7 (20169,0), 3 CTAs running
GPGPU-Sim uArch: Shader 13 finished CTA #7 (20226,0), 4 CTAs running
GPGPU-Sim PTX: 10100000 instructions simulated : ctaid=(1,18,0) tid=(1,9,0)
GPGPU-Sim PTX: 10200000 instructions simulated : ctaid=(2,27,0) tid=(5,2,0)
GPGPU-Sim uArch: Shader 10 finished CTA #6 (20481,0), 4 CTAs running
GPGPU-Sim uArch: cycles simulated: 20500  inst.: 10206522 (ipc=497.9) sim_rate=340217 (inst/sec) elapsed = 0:0:00:30 / Tue Apr 16 16:57:00 2019
GPGPU-Sim uArch: Shader 4 finished CTA #5 (20534,0), 7 CTAs running
GPGPU-Sim uArch: Shader 5 finished CTA #6 (20555,0), 6 CTAs running
GPGPU-Sim PTX: 10300000 instructions simulated : ctaid=(0,24,0) tid=(10,11,0)
GPGPU-Sim uArch: Shader 0 finished CTA #1 (20596,0), 2 CTAs running
GPGPU-Sim uArch: Shader 10 finished CTA #7 (20698,0), 3 CTAs running
GPGPU-Sim uArch: Shader 1 finished CTA #7 (20720,0), 2 CTAs running
GPGPU-Sim PTX: 10400000 instructions simulated : ctaid=(2,21,0) tid=(2,11,0)
GPGPU-Sim uArch: Shader 6 finished CTA #6 (20821,0), 6 CTAs running
GPGPU-Sim uArch: Shader 2 finished CTA #7 (20828,0), 3 CTAs running
GPGPU-Sim uArch: Shader 12 finished CTA #0 (20876,0), 2 CTAs running
GPGPU-Sim PTX: 10500000 instructions simulated : ctaid=(5,22,0) tid=(8,12,0)
GPGPU-Sim uArch: Shader 4 finished CTA #6 (20958,0), 6 CTAs running
GPGPU-Sim uArch: Shader 9 finished CTA #5 (20960,0), 3 CTAs running
GPGPU-Sim PTX: 10600000 instructions simulated : ctaid=(4,18,0) tid=(1,5,0)
GPGPU-Sim uArch: Shader 11 finished CTA #0 (21229,0), 2 CTAs running
GPGPU-Sim PTX: 10700000 instructions simulated : ctaid=(4,24,0) tid=(1,2,0)
GPGPU-Sim PTX: 10800000 instructions simulated : ctaid=(3,27,0) tid=(8,9,0)
GPGPU-Sim uArch: Shader 1 finished CTA #1 (21466,0), 1 CTAs running
GPGPU-Sim uArch: Shader 3 finished CTA #7 (21479,0), 3 CTAs running
GPGPU-Sim uArch: cycles simulated: 21500  inst.: 10807532 (ipc=502.7) sim_rate=348630 (inst/sec) elapsed = 0:0:00:31 / Tue Apr 16 16:57:01 2019
GPGPU-Sim uArch: Shader 2 finished CTA #1 (21555,0), 2 CTAs running
GPGPU-Sim PTX: 10900000 instructions simulated : ctaid=(2,26,0) tid=(0,2,0)
GPGPU-Sim uArch: Shader 14 finished CTA #7 (21630,0), 4 CTAs running
GPGPU-Sim uArch: Shader 13 finished CTA #1 (21658,0), 3 CTAs running
GPGPU-Sim uArch: Shader 0 finished CTA #2 (21681,0), 1 CTAs running
GPGPU-Sim uArch: Shader 10 finished CTA #0 (21694,0), 2 CTAs running
GPGPU-Sim uArch: Shader 7 finished CTA #5 (21722,0), 4 CTAs running
GPGPU-Sim uArch: Shader 6 finished CTA #7 (21772,0), 5 CTAs running
GPGPU-Sim PTX: 11000000 instructions simulated : ctaid=(3,24,0) tid=(1,2,0)
GPGPU-Sim uArch: Shader 9 finished CTA #6 (21825,0), 2 CTAs running
GPGPU-Sim uArch: Shader 11 finished CTA #3 (21841,0), 1 CTAs running
GPGPU-Sim uArch: Shader 8 finished CTA #5 (21852,0), 4 CTAs running
GPGPU-Sim uArch: Shader 14 finished CTA #1 (21890,0), 3 CTAs running
GPGPU-Sim uArch: Shader 12 finished CTA #1 (21916,0), 1 CTAs running
GPGPU-Sim uArch: cycles simulated: 22000  inst.: 11054338 (ipc=502.5) sim_rate=345448 (inst/sec) elapsed = 0:0:00:32 / Tue Apr 16 16:57:02 2019
GPGPU-Sim uArch: Shader 4 finished CTA #7 (22013,0), 5 CTAs running
GPGPU-Sim PTX: 11100000 instructions simulated : ctaid=(0,21,0) tid=(7,5,0)
GPGPU-Sim uArch: Shader 7 finished CTA #6 (22044,0), 3 CTAs running
GPGPU-Sim uArch: Shader 3 finished CTA #1 (22172,0), 2 CTAs running
GPGPU-Sim uArch: Shader 5 finished CTA #7 (22201,0), 5 CTAs running
GPGPU-Sim PTX: 11200000 instructions simulated : ctaid=(2,26,0) tid=(3,4,0)
GPGPU-Sim uArch: Shader 13 finished CTA #2 (22285,0), 2 CTAs running
GPGPU-Sim uArch: Shader 8 finished CTA #6 (22349,0), 3 CTAs running
GPGPU-Sim uArch: Shader 2 finished CTA #2 (22403,0), 1 CTAs running
GPGPU-Sim uArch: Shader 14 finished CTA #2 (22463,0), 2 CTAs running
GPGPU-Sim PTX: 11300000 instructions simulated : ctaid=(0,27,0) tid=(5,9,0)
GPGPU-Sim uArch: Shader 10 finished CTA #3 (22524,0), 1 CTAs running
GPGPU-Sim uArch: Shader 4 finished CTA #0 (22613,0), 4 CTAs running
GPGPU-Sim uArch: Shader 1 finished CTA #2 (22737,0), 0 CTAs running
GPGPU-Sim uArch: Shader 1 empty (release kernel 1 '_Z17executeFirstLayerPfS_S_').
GPGPU-Sim uArch: Shader 9 finished CTA #7 (22812,0), 1 CTAs running
GPGPU-Sim PTX: 11400000 instructions simulated : ctaid=(0,27,0) tid=(0,4,0)
GPGPU-Sim uArch: Shader 0 finished CTA #0 (22853,0), 0 CTAs running
GPGPU-Sim uArch: Shader 0 empty (release kernel 1 '_Z17executeFirstLayerPfS_S_').
GPGPU-Sim uArch: Shader 7 finished CTA #7 (22869,0), 2 CTAs running
GPGPU-Sim uArch: Shader 11 finished CTA #1 (22990,0), 0 CTAs running
GPGPU-Sim uArch: Shader 11 empty (release kernel 1 '_Z17executeFirstLayerPfS_S_').
GPGPU-Sim uArch: cycles simulated: 23000  inst.: 11408613 (ipc=496.0) sim_rate=345715 (inst/sec) elapsed = 0:0:00:33 / Tue Apr 16 16:57:03 2019
GPGPU-Sim uArch: Shader 12 finished CTA #3 (23019,0), 0 CTAs running
GPGPU-Sim uArch: Shader 12 empty (release kernel 1 '_Z17executeFirstLayerPfS_S_').
GPGPU-Sim uArch: Shader 4 finished CTA #3 (23066,0), 3 CTAs running
GPGPU-Sim uArch: Shader 3 finished CTA #2 (23089,0), 1 CTAs running
GPGPU-Sim PTX: 11500000 instructions simulated : ctaid=(0,27,0) tid=(3,3,0)
GPGPU-Sim uArch: Shader 13 finished CTA #0 (23250,0), 1 CTAs running
GPGPU-Sim uArch: Shader 8 finished CTA #7 (23357,0), 2 CTAs running
GPGPU-Sim uArch: Shader 10 finished CTA #1 (23543,0), 0 CTAs running
GPGPU-Sim uArch: Shader 10 empty (release kernel 1 '_Z17executeFirstLayerPfS_S_').
GPGPU-Sim uArch: Shader 2 finished CTA #0 (23554,0), 0 CTAs running
GPGPU-Sim uArch: Shader 2 empty (release kernel 1 '_Z17executeFirstLayerPfS_S_').
GPGPU-Sim uArch: Shader 14 finished CTA #3 (23656,0), 1 CTAs running
GPGPU-Sim uArch: Shader 5 finished CTA #0 (23702,0), 4 CTAs running
GPGPU-Sim uArch: Shader 4 finished CTA #1 (23740,0), 2 CTAs running
GPGPU-Sim PTX: 11600000 instructions simulated : ctaid=(5,24,0) tid=(10,4,0)
GPGPU-Sim uArch: Shader 6 finished CTA #0 (23788,0), 4 CTAs running
GPGPU-Sim uArch: Shader 9 finished CTA #1 (23837,0), 0 CTAs running
GPGPU-Sim uArch: Shader 9 empty (release kernel 1 '_Z17executeFirstLayerPfS_S_').
GPGPU-Sim uArch: Shader 7 finished CTA #1 (23926,0), 1 CTAs running
GPGPU-Sim uArch: Shader 6 finished CTA #1 (24018,0), 3 CTAs running
GPGPU-Sim uArch: Shader 3 finished CTA #4 (24032,0), 0 CTAs running
GPGPU-Sim uArch: Shader 3 empty (release kernel 1 '_Z17executeFirstLayerPfS_S_').
GPGPU-Sim uArch: Shader 13 finished CTA #5 (24042,0), 0 CTAs running
GPGPU-Sim uArch: Shader 13 empty (release kernel 1 '_Z17executeFirstLayerPfS_S_').
GPGPU-Sim uArch: Shader 8 finished CTA #1 (24117,0), 1 CTAs running
GPGPU-Sim uArch: Shader 14 finished CTA #0 (24382,0), 0 CTAs running
GPGPU-Sim uArch: Shader 14 empty (release kernel 1 '_Z17executeFirstLayerPfS_S_').
GPGPU-Sim uArch: Shader 5 finished CTA #1 (24516,0), 3 CTAs running
GPGPU-Sim uArch: Shader 5 finished CTA #3 (24550,0), 2 CTAs running
GPGPU-Sim uArch: Shader 4 finished CTA #4 (24637,0), 1 CTAs running
GPGPU-Sim PTX: 11700000 instructions simulated : ctaid=(4,26,0) tid=(10,8,0)
GPGPU-Sim uArch: Shader 6 finished CTA #3 (24713,0), 2 CTAs running
GPGPU-Sim uArch: Shader 7 finished CTA #2 (25031,0), 0 CTAs running
GPGPU-Sim uArch: Shader 7 empty (release kernel 1 '_Z17executeFirstLayerPfS_S_').
GPGPU-Sim uArch: Shader 5 finished CTA #4 (25305,0), 1 CTAs running
GPGPU-Sim uArch: Shader 8 finished CTA #2 (25400,0), 0 CTAs running
GPGPU-Sim uArch: Shader 8 empty (release kernel 1 '_Z17executeFirstLayerPfS_S_').
GPGPU-Sim uArch: Shader 6 finished CTA #4 (25418,0), 1 CTAs running
GPGPU-Sim uArch: Shader 4 finished CTA #2 (25601,0), 0 CTAs running
GPGPU-Sim uArch: Shader 4 empty (release kernel 1 '_Z17executeFirstLayerPfS_S_').
GPGPU-Sim uArch: Shader 5 finished CTA #2 (26273,0), 0 CTAs running
GPGPU-Sim uArch: Shader 5 empty (release kernel 1 '_Z17executeFirstLayerPfS_S_').
GPGPU-Sim uArch: Shader 6 finished CTA #2 (26322,0), 0 CTAs running
GPGPU-Sim uArch: Shader 6 empty (release kernel 1 '_Z17executeFirstLayerPfS_S_').
GPGPU-Sim uArch: GPU detected kernel '_Z17executeFirstLayerPfS_S_' finished on shader 6.
kernel_name = _Z17executeFirstLayerPfS_S_ 
kernel_launch_uid = 1 
gpu_sim_cycle = 26323
gpu_sim_insn = 11694074
gpu_ipc =     444.2531
gpu_tot_sim_cycle = 26323
gpu_tot_sim_insn = 11694074
gpu_tot_ipc =     444.2531
gpu_tot_issued_cta = 0
gpu_stall_dramfull = 35890
gpu_stall_icnt2sh    = 122001
gpu_total_sim_rate=343943

========= Core cache stats =========
L1I_cache:
	L1I_total_cache_accesses = 245077
	L1I_total_cache_misses = 1197
	L1I_total_cache_miss_rate = 0.0049
	L1I_total_cache_pending_hits = 0
	L1I_total_cache_reservation_fails = 4140
L1D_cache:
	L1D_cache_core[0]: Access = 9384, Miss = 1320, Miss_rate = 0.141, Pending_hits = 181, Reservation_fails = 5936
	L1D_cache_core[1]: Access = 8537, Miss = 1376, Miss_rate = 0.161, Pending_hits = 165, Reservation_fails = 7269
	L1D_cache_core[2]: Access = 9405, Miss = 1410, Miss_rate = 0.150, Pending_hits = 170, Reservation_fails = 6745
	L1D_cache_core[3]: Access = 9378, Miss = 1422, Miss_rate = 0.152, Pending_hits = 184, Reservation_fails = 7469
	L1D_cache_core[4]: Access = 11081, Miss = 1331, Miss_rate = 0.120, Pending_hits = 163, Reservation_fails = 6089
	L1D_cache_core[5]: Access = 11095, Miss = 1395, Miss_rate = 0.126, Pending_hits = 191, Reservation_fails = 6758
	L1D_cache_core[6]: Access = 11098, Miss = 1443, Miss_rate = 0.130, Pending_hits = 166, Reservation_fails = 6717
	L1D_cache_core[7]: Access = 8510, Miss = 1329, Miss_rate = 0.156, Pending_hits = 427, Reservation_fails = 9259
	L1D_cache_core[8]: Access = 8535, Miss = 1292, Miss_rate = 0.151, Pending_hits = 386, Reservation_fails = 9725
	L1D_cache_core[9]: Access = 7682, Miss = 1226, Miss_rate = 0.160, Pending_hits = 365, Reservation_fails = 9666
	L1D_cache_core[10]: Access = 9344, Miss = 1369, Miss_rate = 0.147, Pending_hits = 160, Reservation_fails = 6876
	L1D_cache_core[11]: Access = 9356, Miss = 1362, Miss_rate = 0.146, Pending_hits = 147, Reservation_fails = 6301
	L1D_cache_core[12]: Access = 9372, Miss = 1394, Miss_rate = 0.149, Pending_hits = 164, Reservation_fails = 6384
	L1D_cache_core[13]: Access = 10235, Miss = 1481, Miss_rate = 0.145, Pending_hits = 207, Reservation_fails = 6071
	L1D_cache_core[14]: Access = 10190, Miss = 1434, Miss_rate = 0.141, Pending_hits = 188, Reservation_fails = 6283
	L1D_total_cache_accesses = 143202
	L1D_total_cache_misses = 20584
	L1D_total_cache_miss_rate = 0.1437
	L1D_total_cache_pending_hits = 3264
	L1D_total_cache_reservation_fails = 107548
	L1D_cache_data_port_util = 0.328
	L1D_cache_fill_port_util = 0.051
L1C_cache:
	L1C_total_cache_accesses = 28224
	L1C_total_cache_misses = 1000
	L1C_total_cache_miss_rate = 0.0354
	L1C_total_cache_pending_hits = 0
	L1C_total_cache_reservation_fails = 5136
L1T_cache:
	L1T_total_cache_accesses = 0
	L1T_total_cache_misses = 0
	L1T_total_cache_pending_hits = 0
	L1T_total_cache_reservation_fails = 0

Total_core_cache_stats:
	Total_core_cache_stats_breakdown[GLOBAL_ACC_R][HIT] = 119354
	Total_core_cache_stats_breakdown[GLOBAL_ACC_R][HIT_RESERVED] = 3264
	Total_core_cache_stats_breakdown[GLOBAL_ACC_R][MISS] = 18724
	Total_core_cache_stats_breakdown[GLOBAL_ACC_R][RESERVATION_FAIL] = 106753
	Total_core_cache_stats_breakdown[CONST_ACC_R][HIT] = 27224
	Total_core_cache_stats_breakdown[CONST_ACC_R][MISS] = 1000
	Total_core_cache_stats_breakdown[CONST_ACC_R][RESERVATION_FAIL] = 5136
	Total_core_cache_stats_breakdown[GLOBAL_ACC_W][MISS] = 1860
	Total_core_cache_stats_breakdown[GLOBAL_ACC_W][RESERVATION_FAIL] = 795
	Total_core_cache_stats_breakdown[INST_ACC_R][HIT] = 243880
	Total_core_cache_stats_breakdown[INST_ACC_R][MISS] = 1197
	Total_core_cache_stats_breakdown[INST_ACC_R][RESERVATION_FAIL] = 4140
Shader 0 warp_id issue ditsribution:
warp_id:
0, 1, 2, 3, 4, 5, 6, 7, 8, 9, 10, 11, 12, 13, 14, 15, 16, 17, 18, 19, 20, 21, 22, 23, 24, 25, 26, 27, 28, 29, 30, 31, 32, 33, 34, 35, 36, 37, 38, 39, 40, 41, 42, 43, 44, 45, 46, 47, 
distro:
874, 874, 874, 874, 874, 845, 874, 874, 874, 874, 874, 816, 874, 874, 874, 874, 874, 845, 408, 437, 437, 437, 437, 437, 437, 437, 437, 437, 437, 437, 437, 437, 437, 437, 437, 408, 437, 437, 437, 437, 437, 437, 437, 437, 437, 437, 437, 408, 
gpgpu_n_tot_thrd_icount = 13976224
gpgpu_n_tot_w_icount = 436757
gpgpu_n_stall_shd_mem = 203470
gpgpu_n_mem_read_local = 0
gpgpu_n_mem_write_local = 0
gpgpu_n_mem_read_global = 18724
gpgpu_n_mem_write_global = 1860
gpgpu_n_mem_texture = 0
gpgpu_n_mem_const = 45
gpgpu_n_load_insn  = 1447992
gpgpu_n_store_insn = 28392
gpgpu_n_shmem_insn = 0
gpgpu_n_tex_insn = 0
gpgpu_n_const_mem_insn = 709800
gpgpu_n_param_mem_insn = 85176
gpgpu_n_shmem_bkconflict = 0
gpgpu_n_cache_bkconflict = 0
gpgpu_n_intrawarp_mshr_merge = 0
gpgpu_n_cmem_portconflict = 5136
gpgpu_stall_shd_mem[c_mem][bk_conf] = 5136
gpgpu_stall_shd_mem[c_mem][mshr_rc] = 0
gpgpu_stall_shd_mem[c_mem][icnt_rc] = 0
gpgpu_stall_shd_mem[c_mem][data_port_stall] = 0
gpgpu_stall_shd_mem[t_mem][mshr_rc] = 0
gpgpu_stall_shd_mem[t_mem][icnt_rc] = 0
gpgpu_stall_shd_mem[t_mem][data_port_stall] = 0
gpgpu_stall_shd_mem[s_mem][bk_conf] = 0
gpgpu_stall_shd_mem[gl_mem][bk_conf] = 0
gpgpu_stall_shd_mem[gl_mem][coal_stall] = 198334
gpgpu_stall_shd_mem[gl_mem][data_port_stall] = 0
gpgpu_stall_shd_mem[g_mem_ld][mshr_rc] = 0
gpgpu_stall_shd_mem[g_mem_ld][icnt_rc] = 0
gpgpu_stall_shd_mem[g_mem_ld][wb_icnt_rc] = 0
gpgpu_stall_shd_mem[g_mem_ld][wb_rsrv_fail] = 0
gpgpu_stall_shd_mem[g_mem_st][mshr_rc] = 0
gpgpu_stall_shd_mem[g_mem_st][icnt_rc] = 0
gpgpu_stall_shd_mem[g_mem_st][wb_icnt_rc] = 0
gpgpu_stall_shd_mem[g_mem_st][wb_rsrv_fail] = 0
gpgpu_stall_shd_mem[l_mem_ld][mshr_rc] = 0
gpgpu_stall_shd_mem[l_mem_ld][icnt_rc] = 0
gpgpu_stall_shd_mem[l_mem_ld][wb_icnt_rc] = 0
gpgpu_stall_shd_mem[l_mem_ld][wb_rsrv_fail] = 0
gpgpu_stall_shd_mem[l_mem_st][mshr_rc] = 0
gpgpu_stall_shd_mem[l_mem_st][icnt_rc] = 0
gpgpu_stall_shd_mem[l_mem_ld][wb_icnt_rc] = 0
gpgpu_stall_shd_mem[l_mem_ld][wb_rsrv_fail] = 0
gpu_reg_bank_conflict_stalls = 0
Warp Occupancy Distribution:
Stall:224033	W0_Idle:29259	W0_Scoreboard:37213	W1:1617	W2:1706	W3:1602	W4:1573	W5:1910	W6:2148	W7:2029	W8:1839	W9:69677	W10:1230	W11:880	W12:982	W13:1064	W14:1298	W15:978	W16:903	W17:828	W18:938	W19:914	W20:652	W21:625	W22:705	W23:1064	W24:1036	W25:1062	W26:1332	W27:1100	W28:1093	W29:981	W30:664	W31:754	W32:331573
traffic_breakdown_coretomem[CONST_ACC_R] = 360 {8:45,}
traffic_breakdown_coretomem[GLOBAL_ACC_R] = 149792 {8:18724,}
traffic_breakdown_coretomem[GLOBAL_ACC_W] = 172800 {40:499,72:504,136:857,}
traffic_breakdown_coretomem[INST_ACC_R] = 840 {8:105,}
traffic_breakdown_memtocore[CONST_ACC_R] = 3240 {72:45,}
traffic_breakdown_memtocore[GLOBAL_ACC_R] = 2546464 {136:18724,}
traffic_breakdown_memtocore[GLOBAL_ACC_W] = 14880 {8:1860,}
traffic_breakdown_memtocore[INST_ACC_R] = 14280 {136:105,}
maxmrqlatency = 90 
maxdqlatency = 0 
maxmflatency = 832 
averagemflatency = 276 
max_icnt2mem_latency = 467 
max_icnt2sh_latency = 26322 
mrq_lat_table:1542 	415 	141 	211 	233 	30 	2 	0 	0 	0 	0 	0 	0 	0 	0 	0 	0 	0 	0 	0 	0 	0 	0 	0 	0 	0 	0 	0 	0 	0 	0 	0 	
dq_lat_table:0 	0 	0 	0 	0 	0 	0 	0 	0 	0 	0 	0 	0 	0 	0 	0 	0 	0 	0 	0 	0 	0 	0 	0 	0 	0 	0 	0 	0 	0 	0 	0 	
mf_lat_table:0 	0 	0 	0 	0 	0 	0 	10375 	9396 	858 	0 	0 	0 	0 	0 	0 	0 	0 	0 	0 	0 	0 	0 	0 	0 	0 	0 	0 	0 	0 	0 	0 	
icnt2mem_lat_table:0 	0 	0 	12840 	2325 	1575 	2126 	1592 	276 	0 	0 	0 	0 	0 	0 	0 	0 	0 	0 	0 	0 	0 	0 	0 	
icnt2sh_lat_table:0 	0 	0 	1417 	10376 	6661 	314 	1 	0 	0 	0 	0 	0 	735 	1125 	0 	0 	0 	0 	0 	0 	0 	0 	0 	
mf_lat_pw_table:0 	0 	0 	0 	0 	0 	0 	26 	25 	0 	0 	0 	0 	0 	0 	0 	0 	0 	0 	0 	0 	0 	0 	0 	0 	0 	0 	0 	0 	0 	0 	0 	
maximum concurrent accesses to same row:
dram[0]:         1         0         0         0         0         0         0         0         0         0         0         0         0         0         0         0 
dram[1]:         1         0         0         0         0         0         0         0         0         0         0         0         0         0         0         0 
dram[2]:         0         0         0         0         0         0         0         0         0         0         0         0         0         0         0         0 
dram[3]:         0         0         0         0         0         0         0         0         0         0         0         0         0         0         0         0 
dram[4]:         0         0         0         0         0         0         0         0         0         0         0         0         0         0         0         0 
dram[5]:         0         0         0         0         0         0         0         0         0         0         0         0         0         0         0         0 
maximum service time to same row:
dram[0]:       350         0         0         0      1532      1563      2006      2040      2662       841      8744      8935     16988     16240         0         0 
dram[1]:      2062         0         0         0      1551      1569      2057      1885      2835      8588      8938      8932     15632     16260         0         0 
dram[2]:      6569         0         0         0      1549      1543      2012      1988      2304      8560      8834      8947     16229     17110         0         0 
dram[3]:      8090         0         0         0      1546      1537      1793      1990      2241      8554      8703      9349     16478     16834         0         0 
dram[4]:         0         0         0         0      1541      1538      2063      1960       847      8579      8924      8569     16474     16879         0         0 
dram[5]:         0         0         0         0      1569      1534      2012      2056       851      8600      9010      8618     17066     16875         0         0 
average row accesses per activate:
dram[0]:  1.000000      -nan      -nan      -nan 10.000000 10.000000 32.000000 32.000000 45.000000 46.000000 67.000000 64.000000 61.000000 60.000000      -nan      -nan 
dram[1]:  3.000000      -nan      -nan      -nan 10.000000 10.000000 32.000000 32.000000 48.000000 46.000000 66.000000 64.000000 60.000000 56.000000      -nan      -nan 
dram[2]:  2.000000      -nan      -nan      -nan 10.000000 12.000000 32.000000 32.000000 46.000000 50.000000 65.000000 65.000000 62.000000 56.000000      -nan      -nan 
dram[3]:  1.000000      -nan      -nan      -nan 10.000000 12.000000 32.000000 32.000000 46.000000 50.000000 66.000000 66.000000 60.000000 56.000000      -nan      -nan 
dram[4]:      -nan      -nan      -nan      -nan 10.000000 12.000000 32.000000 32.000000 46.000000 46.000000 65.000000 66.000000 60.000000 56.000000      -nan      -nan 
dram[5]:      -nan      -nan      -nan      -nan 10.000000 12.000000 32.000000 32.000000 46.000000 50.000000 65.000000 64.000000 60.000000 58.000000      -nan      -nan 
average row locality = 2574/66 = 39.000000
number of total memory accesses made:
dram[0]:         0         0         0         0         0         0         0         0         0         0         0         0         0         0         0         0 
dram[1]:         0         0         0         0         0         0         0         0         0         0         0         0         0         0         0         0 
dram[2]:         0         0         0         0         0         0         0         0         0         0         0         0         0         0         0         0 
dram[3]:         0         0         0         0         0         0         0         0         0         0         0         0         0         0         0         0 
dram[4]:         0         0         0         0         0         0         0         0         0         0         0         0         0         0         0         0 
dram[5]:         0         0         0         0         0         0         0         0         0         0         0         0         0         0         0         0 
total accesses: 0
min_bank_accesses = 0!
min_chip_accesses = 0!
number of total read accesses:
dram[0]:         3         0         0         0        10        10        32        32        32        31        32        32        30        30         0         0 
dram[1]:         3         0         0         0        10        10        32        32        32        32        32        32        30        28         0         0 
dram[2]:         2         0         0         0        10        12        32        32        32        32        32        32        30        28         0         0 
dram[3]:         1         0         0         0        10        12        32        32        32        32        32        32        30        28         0         0 
dram[4]:         0         0         0         0        10        12        32        32        32        32        32        32        30        28         0         0 
dram[5]:         0         0         0         0        10        12        32        32        32        32        32        32        30        28         0         0 
total reads: 1638
min_bank_accesses = 0!
chip skew: 274/272 = 1.01
number of total write accesses:
dram[0]:         0         0         0         0         0         0         0         0        13        15        35        32        31        30         0         0 
dram[1]:         0         0         0         0         0         0         0         0        16        14        34        32        30        28         0         0 
dram[2]:         0         0         0         0         0         0         0         0        14        18        33        33        32        28         0         0 
dram[3]:         0         0         0         0         0         0         0         0        14        18        34        34        30        28         0         0 
dram[4]:         0         0         0         0         0         0         0         0        14        14        33        34        30        28         0         0 
dram[5]:         0         0         0         0         0         0         0         0        14        18        33        32        30        30         0         0 
total reads: 936
min_bank_accesses = 0!
chip skew: 158/153 = 1.03
average mf latency per bank:
dram[0]:       1300    none      none      none       12372      8460     10209     10262      1028       972       259       289       208       205    none      none  
dram[1]:       3764    none      none      none       19179      7596     15321      9474      1032       786       327       279       214       208    none      none  
dram[2]:          0    none      none      none       12694      9526     10425      6011      1278       633       345       233       215       209    none      none  
dram[3]:          0    none      none      none        9070      8529      8270      6274      1043       578       290       241       212       203    none      none  
dram[4]:     none      none      none      none       10119      5382      9019      7679      1399       742       296       229       213       207    none      none  
dram[5]:     none      none      none      none        8629      4899     10410      8480      1259       669       281       241       213       199    none      none  
maximum mf latency per bank:
dram[0]:        278         0         0         0       549       611       563       554       568       568       537       622       291       276         0         0
dram[1]:        552         0         0         0       694       463       754       481       832       505       758       489       447       312         0         0
dram[2]:          0         0         0         0       574       552       677       574       656       439       656       460       539       272         0         0
dram[3]:          0         0         0         0       546       593       579       484       512       443       633       522       292       288         0         0
dram[4]:          0         0         0         0       632       573       652       454       633       479       542       473       288       322         0         0
dram[5]:          0         0         0         0       601       616       577       640       489       617       483       429       294       376         0         0

Number of Memory Banks Accessed per Memory Operation per Warp (from 0):
0	0	0	0	0	0	0	0	0	0	0	0	0	0	0	0	0	0	0	0	0	0	0	0	0	0	0	0	0	0	0	0	0	0	0	0	0	0	0	0	0	0	0	0	0	0	0	0	0	0	0	0	0	0	0	0	0	0	0	0	0	0	0	0	0	0	0	0	0	0	0	0	0	0	0	0	0	0	0	0	0	0	0	0	0	0	0	0	0	0	0	0	0	0	0	0	
Average # of Memory Banks Accessed per Memory Operation per Warp=-nan

position of mrq chosen
0	0	0	0	0	0	0	0	0	0	0	0	0	0	0	0	

average position of mrq chosen = -nan
Memory Partition 0: 
Cache L2_bank_000:
MSHR contents

Cache L2_bank_001:
MSHR contents

In Dram Latency Queue (total = 0): 
DRAM[0]: 16 bks, busW=4 BL=8 CL=12, tRRD=2 tCCD=6, tRCD=12 tRAS=28 tRP=12 tRC=40
n_cmd=34746 n_nop=33951 n_act=13 n_pre=2 n_req=430 n_rd=548 n_write=232 bw_util=0.0449
n_activity=5384 dram_eff=0.2897
bk0: 6a 34670i bk1: 0a 34741i bk2: 0a 34746i bk3: 0a 34747i bk4: 20a 34687i bk5: 20a 34661i bk6: 64a 34587i bk7: 64a 34549i bk8: 64a 34321i bk9: 62a 34305i bk10: 64a 34027i bk11: 64a 33976i bk12: 60a 34060i bk13: 60a 34114i bk14: 0a 34742i bk15: 0a 34742i 
dram_util_bins: 0 0 0 0 0 0 0 0 0 0
dram_eff_bins: 0 0 0 0 0 0 0 0 0 0
mrqq: max=7 avg=0.0721522
Memory Partition 1: 
Cache L2_bank_002:
MSHR contents

Cache L2_bank_003:
MSHR contents

In Dram Latency Queue (total = 0): 
DRAM[1]: 16 bks, busW=4 BL=8 CL=12, tRRD=2 tCCD=6, tRCD=12 tRAS=28 tRP=12 tRC=40
n_cmd=34746 n_nop=33949 n_act=12 n_pre=1 n_req=427 n_rd=546 n_write=238 bw_util=0.04513
n_activity=5399 dram_eff=0.2904
bk0: 6a 34694i bk1: 0a 34745i bk2: 0a 34746i bk3: 0a 34749i bk4: 20a 34687i bk5: 20a 34684i bk6: 64a 34576i bk7: 64a 34558i bk8: 64a 34365i bk9: 64a 34371i bk10: 64a 34149i bk11: 64a 34027i bk12: 60a 34051i bk13: 56a 34048i bk14: 0a 34742i bk15: 0a 34743i 
dram_util_bins: 0 0 0 0 0 0 0 0 0 0
dram_eff_bins: 0 0 0 0 0 0 0 0 0 0
mrqq: max=6 avg=0.054884
Memory Partition 2: 
Cache L2_bank_004:
MSHR contents

Cache L2_bank_005:
MSHR contents

In Dram Latency Queue (total = 0): 
DRAM[2]: 16 bks, busW=4 BL=8 CL=12, tRRD=2 tCCD=6, tRCD=12 tRAS=28 tRP=12 tRC=40
[...]
traffic_breakdown_coretomem[CONST_ACC_R] = 600 {8:75,}
traffic_breakdown_coretomem[GLOBAL_ACC_R] = 1351904 {8:168988,}
traffic_breakdown_coretomem[GLOBAL_ACC_W] = 517200 {40:4279,72:1204,136:1907,}
traffic_breakdown_coretomem[INST_ACC_R] = 3000 {8:375,}
traffic_breakdown_memtocore[CONST_ACC_R] = 5400 {72:75,}
traffic_breakdown_memtocore[GLOBAL_ACC_R] = 22982368 {136:168988,}
traffic_breakdown_memtocore[GLOBAL_ACC_W] = 59120 {8:7390,}
traffic_breakdown_memtocore[INST_ACC_R] = 51000 {136:375,}
maxmrqlatency = 169 
maxdqlatency = 0 
maxmflatency = 832 
averagemflatency = 164 
max_icnt2mem_latency = 467 
max_icnt2sh_latency = 2116038 
mrq_lat_table:7326 	786 	233 	481 	543 	86 	73 	30 	0 	0 	0 	0 	0 	0 	0 	0 	0 	0 	0 	0 	0 	0 	0 	0 	0 	0 	0 	0 	0 	0 	0 	0 	
dq_lat_table:0 	0 	0 	0 	0 	0 	0 	0 	0 	0 	0 	0 	0 	0 	0 	0 	0 	0 	0 	0 	0 	0 	0 	0 	0 	0 	0 	0 	0 	0 	0 	0 	
mf_lat_table:0 	0 	0 	0 	0 	0 	0 	160949 	14645 	859 	0 	0 	0 	0 	0 	0 	0 	0 	0 	0 	0 	0 	0 	0 	0 	0 	0 	0 	0 	0 	0 	0 	
icnt2mem_lat_table:0 	0 	0 	167963 	3018 	1787 	2175 	1609 	276 	0 	0 	0 	0 	0 	0 	0 	0 	0 	0 	0 	0 	0 	0 	0 	
icnt2sh_lat_table:0 	0 	0 	141492 	19643 	7598 	329 	1 	0 	0 	0 	0 	0 	735 	1125 	904 	1546 	120 	360 	820 	1500 	280 	0 	0 	
mf_lat_pw_table:0 	0 	0 	0 	0 	0 	0 	4199 	32 	0 	0 	0 	0 	0 	0 	0 	0 	0 	0 	0 	0 	0 	0 	0 	0 	0 	0 	0 	0 	0 	0 	0 	
maximum concurrent accesses to same row:
dram[0]:        70        67        69        72        30        25        32        32        45        46        67        64        63        62        56        52 
dram[1]:        72        66        70        67        32        26        32        32        48        46        66        64        62        60        57        53 
dram[2]:        68        68        66        69        30        28        32        32        46        50        65        65        64        60        54        53 
dram[3]:        66        72        68        65        29        27        32        32        46        50        66        66        62        60        52        56 
dram[4]:        68        68        69        67        28        26        32        32        46        46        65        66        62        60        55        56 
dram[5]:        71        74        66        66        26        25        32        32        46        50        65        64        62        62        55        58 
maximum service time to same row:
dram[0]:     18404     10929     51606     51484     80425     80437      4760      4910    504019   1156768      8744      8935     16988     16240       282       288 
dram[1]:     19182    248563     51600     52168     81134     80290      4851      6621    501777    505185      8938      8932     15632    318977       288       285 
dram[2]:     13009     83434     50265     51582     80832     80557      4932      6607    503640    733487      8834      8947     16229    323382      1494       438 
dram[3]:     11382    242872     50597     51574     81167     80976      5077      6525   1012332    545773      8703      9349     16478    326793       285       285 
dram[4]:     18541     21772     50716     51568     81230     80538      4898      6510    514170    509055      8924      8569     16474     16879       285       285 
dram[5]:     11225     23546     51187     51934     79999     80428      4860      4958    510352    534958      9010      8618     17066     16875      1150       304 
average row accesses per activate:
dram[0]: 17.666666 33.666668 50.500000 52.000000  3.333333  2.900000  2.526316  2.461539  2.760870  3.146342 49.500000 48.000000 32.000000 47.000000 44.000000 42.000000 
dram[1]: 27.000000 10.400000 51.000000 49.500000  3.407408  2.806452  2.526316  2.909091  3.100000  3.000000 49.000000 48.000000 47.000000 31.333334 44.500000 42.500000 
dram[2]: 34.000000 26.250000 49.000000 50.500000  3.708333  2.967742  2.594594  2.909091  3.023809  3.527778 48.500000 48.500000 48.000000 31.333334 43.000000 42.500000 
dram[3]: 33.333332 15.571428 50.000000 48.500000  3.560000  3.033333  2.526316  2.909091  3.526316  3.500000 49.000000 49.000000 47.000000 31.333334 42.000000 44.000000 
dram[4]: 34.000000 34.000000 50.500000 49.500000  3.068965  2.966667  2.594594  2.823529  3.116279  2.739130 48.500000 49.000000 47.000000 31.333334 43.500000 44.000000 
dram[5]: 35.000000 36.000000 49.000000 49.000000  3.000000  3.142857  2.594594  2.666667  3.022222  3.289474 48.500000 48.000000 47.000000 32.000000 43.500000 45.000000 
average row locality = 9558/1422 = 6.721519
number of total memory accesses made:
dram[0]:         0         0         0         0         0         0         0         0         0         0         0         0         0         0         0         0 
dram[1]:         0         0         0         0         0         0         0         0         0         0         0         0         0         0         0         0 
dram[2]:         0         0         0         0         0         0         0         0         0         0         0         0         0         0         0         0 
dram[3]:         0         0         0         0         0         0         0         0         0         0         0         0         0         0         0         0 
dram[4]:         0         0         0         0         0         0         0         0         0         0         0         0         0         0         0         0 
dram[5]:         0         0         0         0         0         0         0         0         0         0         0         0         0         0         0         0 
total accesses: 0
min_bank_accesses = 0!
min_chip_accesses = 0!
number of total read accesses:
dram[0]:        68        66        64        64        74        74        96        96        94        93        64        64        64        64        64        64 
dram[1]:        68        68        64        64        74        74        96        96        94        93        64        64        64        64        64        64 
dram[2]:        66        68        64        64        74        76        96        96        94        92        64        64        64        64        64        64 
dram[3]:        66        68        64        64        74        76        96        96        94        92        64        64        64        64        64        64 
dram[4]:        66        66        64        64        74        76        96        96        94        92        64        64        64        64        64        64 
dram[5]:        66        66        64        64        74        76        96        96        94        92        64        64        64        64        64        64 
total reads: 7040
bank skew: 96/64 = 1.50
chip skew: 1175/1172 = 1.00
number of total write accesses:
dram[0]:        38        35        37        40        16        13         0         0        33        36        35        32        32        30        24        20 
dram[1]:        40        36        38        35        18        13         0         0        30        36        34        32        30        30        25        21 
dram[2]:        36        37        34        37        15        16         0         0        33        35        33        33        32        30        22        21 
dram[3]:        34        41        36        33        15        15         0         0        40        34        34        34        30        30        20        24 
dram[4]:        36        36        37        35        15        13         0         0        40        34        33        34        30        30        23        24 
dram[5]:        39        42        34        34        13        12         0         0        42        33        33        32        30        32        23        26 
total reads: 2518
min_bank_accesses = 0!
chip skew: 425/414 = 1.03
average mf latency per bank:
dram[0]:       2213      2301      2221      2144      4129      3901      6188      6237      2726      2708      2207      2322      2291      2297      2870      2904
dram[1]:       2262      2202      2228      2295      4806      3815      7928      5940      2790      2658      2318      2279      2335      2419      2758      2928
dram[2]:       2301      2185      2345      2264      4204      3938      6257      4821      2756      2568      2340      2315      2318      2356      2819      2899
dram[3]:       2319      2115      2239      2309      3789      3879      5572      4937      2674      2567      2298      2249      2290      2352      3039      2798
dram[4]:       2248      2227      2265      2318      3953      3592      5782      5339      2791      2626      2312      2209      2372      2343      2814      2853
dram[5]:       2205      2144      2329      2308      3872      3530      6290      5636      2675      2570      2273      2288      2341      2318      2898      2736
maximum mf latency per bank:
dram[0]:        289       325       287       277       549       611       563       554       568       568       537       622       291       277       491       387
dram[1]:        552       487       325       457       694       497       754       511       832       513       758       489       447       483       423       487
dram[2]:        343       293       325       302       574       552       677       574       656       439       656       460       539       280       373       405
dram[3]:        337       312       277       279       546       593       579       484       512       443       633       522       292       288       381       409
dram[4]:        285       285       361       325       632       573       652       454       633       479       542       473       288       345       331       440
dram[5]:        295       325       331       313       601       616       577       640       489       617       483       429       369       376       378       489

Number of Memory Banks Accessed per Memory Operation per Warp (from 0):
0	0	0	0	0	0	0	0	0	0	0	0	0	0	0	0	0	0	0	0	0	0	0	0	0	0	0	0	0	0	0	0	0	0	0	0	0	0	0	0	0	0	0	0	0	0	0	0	0	0	0	0	0	0	0	0	0	0	0	0	0	0	0	0	0	0	0	0	0	0	0	0	0	0	0	0	0	0	0	0	0	0	0	0	0	0	0	0	0	0	0	0	0	0	0	0	
Average # of Memory Banks Accessed per Memory Operation per Warp=-nan

position of mrq chosen
0	0	0	0	0	0	0	0	0	0	0	0	0	0	0	0	

average position of mrq chosen = -nan
Memory Partition 0: 
Cache L2_bank_000:
MSHR contents

Cache L2_bank_001:
MSHR contents

In Dram Latency Queue (total = 0): 
DRAM[0]: 16 bks, busW=4 BL=8 CL=12, tRRD=2 tCCD=6, tRCD=12 tRAS=28 tRP=12 tRC=40
n_cmd=2793168 n_nop=2789731 n_act=247 n_pre=231 n_req=1594 n_rd=2346 n_write=613 bw_util=0.002119
n_activity=28421 dram_eff=0.2082
bk0: 136a 2792307i bk1: 132a 2792429i bk2: 128a 2792458i bk3: 128a 2792463i bk4: 148a 2792090i bk5: 148a 2791992i bk6: 192a 2791838i bk7: 192a 2791707i bk8: 188a 2791142i bk9: 186a 2791226i bk10: 128a 2792158i bk11: 128a 2792153i bk12: 128a 2792219i bk13: 128a 2792346i bk14: 128a 2792446i bk15: 128a 2792495i 
dram_util_bins: 0 0 0 0 0 0 0 0 0 0
dram_eff_bins: 0 0 0 0 0 0 0 0 0 0
mrqq: max=16 avg=0.00308539
Memory Partition 1: 
Cache L2_bank_002:
MSHR contents

Cache L2_bank_003:
MSHR contents

In Dram Latency Queue (total = 0): 
DRAM[1]: 16 bks, busW=4 BL=8 CL=12, tRRD=2 tCCD=6, tRCD=12 tRAS=28 tRP=12 tRC=40
n_cmd=2793168 n_nop=2789728 n_act=244 n_pre=228 n_req=1593 n_rd=2350 n_write=618 bw_util=0.002125
n_activity=28523 dram_eff=0.2081
bk0: 136a 2792347i bk1: 136a 2792264i bk2: 128a 2792502i bk3: 128a 2792486i bk4: 148a 2792021i bk5: 148a 2791911i bk6: 192a 2791816i bk7: 192a 2791873i bk8: 188a 2791402i bk9: 186a 2791248i bk10: 128a 2792282i bk11: 128a 2792220i bk12: 128a 2792273i bk13: 128a 2792209i bk14: 128a 2792467i bk15: 128a 2792513i 
dram_util_bins: 0 0 0 0 0 0 0 0 0 0
dram_eff_bins: 0 0 0 0 0 0 0 0 0 0
mrqq: max=16 avg=0.0025097
Memory Partition 2: 
Cache L2_bank_004:
MSHR contents

Cache L2_bank_005:
MSHR contents

In Dram Latency Queue (total = 0): 
DRAM[2]: 16 bks, busW=4 BL=8 CL=12, tRRD=2 tCCD=6, tRCD=12 tRAS=28 tRP=12 tRC=40
n_cmd=2793168 n_nop=2789784 n_act=227 n_pre=211 n_req=1588 n_rd=2348 n_write=598 bw_util=0.002109
n_activity=27619 dram_eff=0.2133
bk0: 132a 2792436i bk1: 136a 2792393i bk2: 128a 2792502i bk3: 128a 2792482i bk4: 148a 2792159i bk5: 152a 2791961i bk6: 192a 2791808i bk7: 192a 2791819i bk8: 188a 2791321i bk9: 184a 2791391i bk10: 128a 2792186i bk11: 128a 2792220i bk12: 128a 2792305i bk13: 128a 2792337i bk14: 128a 2792495i bk15: 128a 2792508i 
dram_util_bins: 0 0 0 0 0 0 0 0 0 0
dram_eff_bins: 0 0 0 0 0 0 0 0 0 0
mrqq: max=16 avg=0.00216672
Memory Partition 3: 
Cache L2_bank_006:
MSHR contents

Cache L2_bank_007:
MSHR contents

In Dram Latency Queue (total = 0): 
DRAM[3]: 16 bks, busW=4 BL=8 CL=12, tRRD=2 tCCD=6, tRCD=12 tRAS=28 tRP=12 tRC=40
n_cmd=2793168 n_nop=2789772 n_act=227 n_pre=211 n_req=1594 n_rd=2348 n_write=610 bw_util=0.002118
n_activity=27901 dram_eff=0.212
bk0: 132a 2792401i bk1: 136a 2792265i bk2: 128a 2792468i bk3: 128a 2792524i bk4: 148a 2792122i bk5: 152a 2791975i bk6: 192a 2791807i bk7: 192a 2791862i bk8: 188a 2791310i bk9: 184a 2791381i bk10: 128a 2792207i bk11: 128a 2792279i bk12: 128a 2792359i bk13: 128a 2792295i bk14: 128a 2792510i bk15: 128a 2792411i 
dram_util_bins: 0 0 0 0 0 0 0 0 0 0
dram_eff_bins: 0 0 0 0 0 0 0 0 0 0
mrqq: max=16 avg=0.00268477
Memory Partition 4: 
Cache L2_bank_008:
MSHR contents

Cache L2_bank_009:
MSHR contents

In Dram Latency Queue (total = 0): 
DRAM[4]: 16 bks, busW=4 BL=8 CL=12, tRRD=2 tCCD=6, tRCD=12 tRAS=28 tRP=12 tRC=40
n_cmd=2793168 n_nop=2789750 n_act=242 n_pre=226 n_req=1592 n_rd=2344 n_write=606 bw_util=0.002112
n_activity=28494 dram_eff=0.2071
bk0: 132a 2792409i bk1: 132a 2792417i bk2: 128a 2792430i bk3: 128a 2792495i bk4: 148a 2792077i bk5: 152a 2791996i bk6: 192a 2791841i bk7: 192a 2791894i bk8: 188a 2791245i bk9: 184a 2791224i bk10: 128a 2792176i bk11: 128a 2792256i bk12: 128a 2792358i bk13: 128a 2792335i bk14: 128a 2792524i bk15: 128a 2792452i 
dram_util_bins: 0 0 0 0 0 0 0 0 0 0
dram_eff_bins: 0 0 0 0 0 0 0 0 0 0
mrqq: max=16 avg=0.00240122
Memory Partition 5: 
Cache L2_bank_010:
MSHR contents

Cache L2_bank_011:
MSHR contents

In Dram Latency Queue (total = 0): 
DRAM[5]: 16 bks, busW=4 BL=8 CL=12, tRRD=2 tCCD=6, tRCD=12 tRAS=28 tRP=12 tRC=40
n_cmd=2793168 n_nop=2789749 n_act=236 n_pre=220 n_req=1597 n_rd=2344 n_write=619 bw_util=0.002122
n_activity=28113 dram_eff=0.2108
bk0: 132a 2792338i bk1: 132a 2792374i bk2: 128a 2792477i bk3: 128a 2792523i bk4: 148a 2792088i bk5: 152a 2792049i bk6: 192a 2791866i bk7: 192a 2791742i bk8: 188a 2791160i bk9: 184a 2791353i bk10: 128a 2792150i bk11: 128a 2792169i bk12: 128a 2792284i bk13: 128a 2792291i bk14: 128a 2792509i bk15: 128a 2792443i 
dram_util_bins: 0 0 0 0 0 0 0 0 0 0
dram_eff_bins: 0 0 0 0 0 0 0 0 0 0
mrqq: max=16 avg=0.00287559

========= L2 cache stats =========
L2_cache_bank[0]: Access = 14776, Miss = 588, Miss_rate = 0.040, Pending_hits = 143, Reservation_fails = 893
L2_cache_bank[1]: Access = 14768, Miss = 585, Miss_rate = 0.040, Pending_hits = 130, Reservation_fails = 948
L2_cache_bank[2]: Access = 14829, Miss = 588, Miss_rate = 0.040, Pending_hits = 147, Reservation_fails = 1019
L2_cache_bank[3]: Access = 14859, Miss = 587, Miss_rate = 0.040, Pending_hits = 114, Reservation_fails = 719
L2_cache_bank[4]: Access = 14743, Miss = 586, Miss_rate = 0.040, Pending_hits = 139, Reservation_fails = 575
L2_cache_bank[5]: Access = 14630, Miss = 588, Miss_rate = 0.040, Pending_hits = 127, Reservation_fails = 789
L2_cache_bank[6]: Access = 14768, Miss = 586, Miss_rate = 0.040, Pending_hits = 128, Reservation_fails = 796
L2_cache_bank[7]: Access = 14557, Miss = 588, Miss_rate = 0.040, Pending_hits = 135, Reservation_fails = 656
L2_cache_bank[8]: Access = 14807, Miss = 586, Miss_rate = 0.040, Pending_hits = 135, Reservation_fails = 983
L2_cache_bank[9]: Access = 14637, Miss = 586, Miss_rate = 0.040, Pending_hits = 123, Reservation_fails = 610
L2_cache_bank[10]: Access = 14863, Miss = 586, Miss_rate = 0.039, Pending_hits = 140, Reservation_fails = 828
L2_cache_bank[11]: Access = 14591, Miss = 586, Miss_rate = 0.040, Pending_hits = 123, Reservation_fails = 686
L2_total_cache_accesses = 176828
L2_total_cache_misses = 7040
L2_total_cache_miss_rate = 0.0398
L2_total_cache_pending_hits = 1584
L2_total_cache_reservation_fails = 9502
L2_total_cache_breakdown:
	L2_cache_stats_breakdown[GLOBAL_ACC_R][HIT] = 162864
	L2_cache_stats_breakdown[GLOBAL_ACC_R][HIT_RESERVED] = 1191
	L2_cache_stats_breakdown[GLOBAL_ACC_R][MISS] = 4933
	L2_cache_stats_breakdown[GLOBAL_ACC_R][RESERVATION_FAIL] = 7632
	L2_cache_stats_breakdown[CONST_ACC_R][HIT] = 63
	L2_cache_stats_breakdown[CONST_ACC_R][HIT_RESERVED] = 9
	L2_cache_stats_breakdown[CONST_ACC_R][MISS] = 3
	L2_cache_stats_breakdown[CONST_ACC_R][RESERVATION_FAIL] = 317
	L2_cache_stats_breakdown[GLOBAL_ACC_W][HIT] = 4980
	L2_cache_stats_breakdown[GLOBAL_ACC_W][HIT_RESERVED] = 331
	L2_cache_stats_breakdown[GLOBAL_ACC_W][MISS] = 2079
	L2_cache_stats_breakdown[GLOBAL_ACC_W][RESERVATION_FAIL] = 434
	L2_cache_stats_breakdown[INST_ACC_R][HIT] = 297
	L2_cache_stats_breakdown[INST_ACC_R][HIT_RESERVED] = 53
	L2_cache_stats_breakdown[INST_ACC_R][MISS] = 25
	L2_cache_stats_breakdown[INST_ACC_R][RESERVATION_FAIL] = 1119
L2_cache_data_port_util = 0.026
L2_cache_fill_port_util = 0.001

icnt_total_pkts_mem_to_simt=854430
icnt_total_pkts_simt_to_mem=191143
LD_mem_lat_dist  0 0 0 0 0 0 0 0 0 0 0 0 0 0 0 0 0 0 0 0 0 0 0 0 0 0 0
ST_mem_lat_dist  0 0 0 0 0 0 0 0 0 0 0 0 0 0 0 0 0 0 0 0 0 0 0 0 0 0 0
----------------------------Interconnect-DETAILS--------------------------------
Class 0:
Packet latency average = 11.0056
	minimum = 6
	maximum = 86
Network latency average = 9.96179
	minimum = 6
	maximum = 70
Slowest packet = 351918
Flit latency average = 7.99817
	minimum = 6
	maximum = 69
Slowest flit = 1041238
Fragmentation average = 0
	minimum = 0
	maximum = 0
Injected packet rate average = 0.00495473
	minimum = 0.00373333 (at node 1)
	maximum = 0.00742222 (at node 16)
Accepted packet rate average = 0.00495473
	minimum = 0.00373333 (at node 1)
	maximum = 0.00742222 (at node 16)
Injected flit rate average = 0.0134815
	minimum = 0.00444444 (at node 1)
	maximum = 0.0273333 (at node 24)
Accepted flit rate average= 0.0134815
	minimum = 0.00413333 (at node 19)
	maximum = 0.0210667 (at node 4)
Injected packet length average = 2.72093
Accepted packet length average = 2.72093
Total in-flight flits = 0 (0 measured)
====== Overall Traffic Statistics ======
====== Traffic class 0 ======
Packet latency average = 13.6221 (4 samples)
	minimum = 6 (4 samples)
	maximum = 134.75 (4 samples)
Network latency average = 11.9178 (4 samples)
	minimum = 6 (4 samples)
	maximum = 126.5 (4 samples)
Flit latency average = 9.73979 (4 samples)
	minimum = 6 (4 samples)
	maximum = 125.25 (4 samples)
Fragmentation average = 0.00850053 (4 samples)
	minimum = 0 (4 samples)
	maximum = 55.5 (4 samples)
Injected packet rate average = 0.0213845 (4 samples)
	minimum = 0.0173791 (4 samples)
	maximum = 0.0264099 (4 samples)
Accepted packet rate average = 0.0213845 (4 samples)
	minimum = 0.0173791 (4 samples)
	maximum = 0.0264099 (4 samples)
Injected flit rate average = 0.0624997 (4 samples)
	minimum = 0.0211862 (4 samples)
	maximum = 0.120771 (4 samples)
Accepted flit rate average = 0.0624997 (4 samples)
	minimum = 0.0271614 (4 samples)
	maximum = 0.0948152 (4 samples)
Injected packet size average = 2.92266 (4 samples)
Accepted packet size average = 2.92266 (4 samples)
Hops average = 1 (4 samples)
----------------------------END-of-Interconnect-DETAILS-------------------------


gpgpu_simulation_time = 0 days, 0 hrs, 18 min, 16 sec (1096 sec)
gpgpu_simulation_rate = 71487 (inst/sec)
gpgpu_simulation_rate = 1930 (cycle/sec)
7 2 1 0 4 1 4 9 6 9 0 6 9 0 1 5 9 7 3 4 9 6 6 5 4 0 7 4
