

        *** GPGPU-Sim Simulator Version 3.2.2  [build 0] ***


GPGPU-Sim PTX: simulation mode 0 (can change with PTX_SIM_MODE_FUNC environment variable:
               1=functional simulation only, 0=detailed performance simulator)
GPGPU-Sim: Configuration options:

-network_mode                           1 # Interconnection network mode
-inter_config_file   config_fermi_islip.icnt # Interconnection network config file
-gpgpu_ptx_use_cuobjdump                    1 # Use cuobjdump to extract ptx and sass from binaries
-gpgpu_experimental_lib_support                    0 # Try to extract code from cuda libraries [Broken because of unknown cudaGetExportTable]
-gpgpu_ptx_convert_to_ptxplus                    0 # Convert SASS (native ISA) to ptxplus and run ptxplus
-gpgpu_ptx_force_max_capability                   20 # Force maximum compute capability
-gpgpu_ptx_inst_debug_to_file                    0 # Dump executed instructions' debug information to file
-gpgpu_ptx_inst_debug_file       inst_debug.txt # Executed instructions' debug output file
-gpgpu_ptx_inst_debug_thread_uid                    1 # Thread UID for executed instructions' debug output
-gpgpu_simd_model                       1 # 1 = post-dominator
-gpgpu_shader_core_pipeline              1536:32 # shader core pipeline config, i.e., {<nthread>:<warpsize>}
-gpgpu_tex_cache:l1  4:128:24,L:R:m:N:L,F:128:4,128:2 # per-shader L1 texture cache  (READ-ONLY) config  {<nsets>:<bsize>:<assoc>,<rep>:<wr>:<alloc>:<wr_alloc>,<mshr>:<N>:<merge>,<mq>:<rf>}
-gpgpu_const_cache:l1 64:64:2,L:R:f:N:L,A:2:32,4 # per-shader L1 constant memory cache  (READ-ONLY) config  {<nsets>:<bsize>:<assoc>,<rep>:<wr>:<alloc>:<wr_alloc>,<mshr>:<N>:<merge>,<mq>} 
-gpgpu_cache:il1     4:128:4,L:R:f:N:L,A:2:32,4 # shader L1 instruction cache config  {<nsets>:<bsize>:<assoc>,<rep>:<wr>:<alloc>:<wr_alloc>,<mshr>:<N>:<merge>,<mq>} 
-gpgpu_cache:dl1     32:128:2,L:L:m:N:H,A:32:8,8 # per-shader L1 data cache config  {<nsets>:<bsize>:<assoc>,<rep>:<wr>:<alloc>:<wr_alloc>,<mshr>:<N>:<merge>,<mq> | none}
-gpgpu_cache:dl1PrefL1                 none # per-shader L1 data cache config  {<nsets>:<bsize>:<assoc>,<rep>:<wr>:<alloc>:<wr_alloc>,<mshr>:<N>:<merge>,<mq> | none}
-gpgpu_cache:dl1PreShared                 none # per-shader L1 data cache config  {<nsets>:<bsize>:<assoc>,<rep>:<wr>:<alloc>:<wr_alloc>,<mshr>:<N>:<merge>,<mq> | none}
-gmem_skip_L1D                          0 # global memory access skip L1D cache (implements -Xptxas -dlcm=cg, default=no skip)
-gpgpu_perfect_mem                      0 # enable perfect memory mode (no cache miss)
-n_regfile_gating_group                    4 # group of lanes that should be read/written together)
-gpgpu_clock_gated_reg_file                    0 # enable clock gated reg file for power calculations
-gpgpu_clock_gated_lanes                    0 # enable clock gated lanes for power calculations
-gpgpu_shader_registers                32768 # Number of registers per shader core. Limits number of concurrent CTAs. (default 8192)
-gpgpu_shader_cta                       8 # Maximum number of concurrent CTAs in shader (default 8)
-gpgpu_num_cta_barriers                   16 # Maximum number of named barriers per CTA (default 16)
-gpgpu_n_clusters                      15 # number of processing clusters
-gpgpu_n_cores_per_cluster                    1 # number of simd cores per cluster
-gpgpu_n_cluster_ejection_buffer_size                    8 # number of packets in ejection buffer
-gpgpu_n_ldst_response_buffer_size                    2 # number of response packets in ld/st unit ejection buffer
-gpgpu_shmem_size                   16384 # Size of shared memory per shader core (default 16kB)
-gpgpu_shmem_size                   49152 # Size of shared memory per shader core (default 16kB)
-gpgpu_shmem_size_PrefL1                16384 # Size of shared memory per shader core (default 16kB)
-gpgpu_shmem_size_PrefShared                16384 # Size of shared memory per shader core (default 16kB)
-gpgpu_shmem_num_banks                   32 # Number of banks in the shared memory in each shader core (default 16)
-gpgpu_shmem_limited_broadcast                    0 # Limit shared memory to do one broadcast per cycle (default on)
-gpgpu_shmem_warp_parts                    1 # Number of portions a warp is divided into for shared memory bank conflict check 
-gpgpu_warpdistro_shader                   -1 # Specify which shader core to collect the warp size distribution from
-gpgpu_warp_issue_shader                    0 # Specify which shader core to collect the warp issue distribution from
-gpgpu_local_mem_map                    1 # Mapping from local memory space address to simulated GPU physical address space (default = enabled)
-gpgpu_num_reg_banks                   16 # Number of register banks (default = 8)
-gpgpu_reg_bank_use_warp_id                    0 # Use warp ID in mapping registers to banks (default = off)
-gpgpu_operand_collector_num_units_sp                    6 # number of collector units (default = 4)
-gpgpu_operand_collector_num_units_sfu                    8 # number of collector units (default = 4)
-gpgpu_operand_collector_num_units_mem                    2 # number of collector units (default = 2)
-gpgpu_operand_collector_num_units_gen                    0 # number of collector units (default = 0)
-gpgpu_operand_collector_num_in_ports_sp                    2 # number of collector unit in ports (default = 1)
-gpgpu_operand_collector_num_in_ports_sfu                    1 # number of collector unit in ports (default = 1)
-gpgpu_operand_collector_num_in_ports_mem                    1 # number of collector unit in ports (default = 1)
-gpgpu_operand_collector_num_in_ports_gen                    0 # number of collector unit in ports (default = 0)
-gpgpu_operand_collector_num_out_ports_sp                    2 # number of collector unit in ports (default = 1)
-gpgpu_operand_collector_num_out_ports_sfu                    1 # number of collector unit in ports (default = 1)
-gpgpu_operand_collector_num_out_ports_mem                    1 # number of collector unit in ports (default = 1)
-gpgpu_operand_collector_num_out_ports_gen                    0 # number of collector unit in ports (default = 0)
-gpgpu_coalesce_arch                   13 # Coalescing arch (default = 13, anything else is off for now)
-gpgpu_num_sched_per_core                    2 # Number of warp schedulers per core
-gpgpu_max_insn_issue_per_warp                    1 # Max number of instructions that can be issued per warp in one cycle by scheduler
-gpgpu_simt_core_sim_order                    1 # Select the simulation order of cores in a cluster (0=Fix, 1=Round-Robin)
-gpgpu_pipeline_widths        2,1,1,2,1,1,2 # Pipeline widths ID_OC_SP,ID_OC_SFU,ID_OC_MEM,OC_EX_SP,OC_EX_SFU,OC_EX_MEM,EX_WB
-gpgpu_num_sp_units                     2 # Number of SP units (default=1)
-gpgpu_num_sfu_units                    1 # Number of SF units (default=1)
-gpgpu_num_mem_units                    1 # Number if ldst units (default=1) WARNING: not hooked up to anything
-gpgpu_scheduler                      gto # Scheduler configuration: < lrr | gto | two_level_active > If two_level_active:<num_active_warps>:<inner_prioritization>:<outer_prioritization>For complete list of prioritization values see shader.h enum scheduler_prioritization_typeDefault: gto
-gpgpu_dram_scheduler                    1 # 0 = fifo, 1 = FR-FCFS (defaul)
-gpgpu_dram_partition_queues              8:8:8:8 # i2$:$2d:d2$:$2i
-l2_ideal                               0 # Use a ideal L2 cache that always hit
-gpgpu_cache:dl2     64:128:8,L:B:m:W:L,A:32:4,4:0,32 # unified banked L2 data cache config  {<nsets>:<bsize>:<assoc>,<rep>:<wr>:<alloc>:<wr_alloc>,<mshr>:<N>:<merge>,<mq>}
-gpgpu_cache:dl2_texture_only                    0 # L2 cache used for texture only
-gpgpu_n_mem                            6 # number of memory modules (e.g. memory controllers) in gpu
-gpgpu_n_sub_partition_per_mchannel                    2 # number of memory subpartition in each memory module
-gpgpu_n_mem_per_ctrlr                    2 # number of memory chips per memory controller
-gpgpu_memlatency_stat                   14 # track and display latency statistics 0x2 enables MC, 0x4 enables queue logs
-gpgpu_frfcfs_dram_sched_queue_size                   16 # 0 = unlimited (default); # entries per chip
-gpgpu_dram_return_queue_size                  116 # 0 = unlimited (default); # entries per chip
-gpgpu_dram_buswidth                    4 # default = 4 bytes (8 bytes per cycle at DDR)
-gpgpu_dram_burst_length                    8 # Burst length of each DRAM request (default = 4 data bus cycle)
-dram_data_command_freq_ratio                    4 # Frequency ratio between DRAM data bus and command bus (default = 2 times, i.e. DDR)
-gpgpu_dram_timing_opt nbk=16:CCD=2:RRD=6:RCD=12:RAS=28:RP=12:RC=40: CL=12:WL=4:CDLR=5:WR=12:nbkgrp=4:CCDL=3:RTPL=2 # DRAM timing parameters = {nbk:tCCD:tRRD:tRCD:tRAS:tRP:tRC:CL:WL:tCDLR:tWR:nbkgrp:tCCDL:tRTPL}
-rop_latency                          120 # ROP queue latency (default 85)
-dram_latency                         100 # DRAM latency (default 30)
-gpgpu_mem_addr_mapping dramid@8;00000000.00000000.00000000.00000000.0000RRRR.RRRRRRRR.BBBCCCCB.CCSSSSSS # mapping memory address to dram model {dramid@<start bit>;<memory address map>}
-gpgpu_mem_addr_test                    0 # run sweep test to check address mapping for aliased address
-gpgpu_mem_address_mask                    1 # 0 = old addressing mask, 1 = new addressing mask, 2 = new add. mask + flipped bank sel and chip sel bits
-gpuwattch_xml_file  gpuwattch_gtx480.xml # GPUWattch XML file
-power_simulation_enabled                    1 # Turn on power simulator (1=On, 0=Off)
-power_per_cycle_dump                    0 # Dump detailed power output each cycle
-power_trace_enabled                    0 # produce a file for the power trace (1=On, 0=Off)
-power_trace_zlevel                     6 # Compression level of the power trace output log (0=no comp, 9=highest)
-steady_power_levels_enabled                    0 # produce a file for the steady power levels (1=On, 0=Off)
-steady_state_definition                  8:4 # allowed deviation:number of samples
-gpgpu_max_cycle                        0 # terminates gpu simulation early (0 = no limit)
-gpgpu_max_insn                         0 # terminates gpu simulation early (0 = no limit)
-gpgpu_max_cta                          0 # terminates gpu simulation early (0 = no limit)
-gpgpu_runtime_stat                   500 # display runtime statistics such as dram utilization {<freq>:<flag>}
-liveness_message_freq                    1 # Minimum number of seconds between simulation liveness messages (0 = always print)
-gpgpu_flush_l1_cache                    0 # Flush L1 cache at the end of each kernel call
-gpgpu_flush_l2_cache                    0 # Flush L2 cache at the end of each kernel call
-gpgpu_deadlock_detect                    1 # Stop the simulation at deadlock (1=on (default), 0=off)
-gpgpu_ptx_instruction_classification                    0 # if enabled will classify ptx instruction types per kernel (Max 255 kernels now)
-gpgpu_ptx_sim_mode                     0 # Select between Performance (default) or Functional simulation (1)
-gpgpu_clock_domains 700.0:700.0:700.0:924.0 # Clock Domain Frequencies in MhZ {<Core Clock>:<ICNT Clock>:<L2 Clock>:<DRAM Clock>}
-gpgpu_max_concurrent_kernel                    8 # maximum kernels that can run concurrently on GPU
-gpgpu_cflog_interval                    0 # Interval between each snapshot in control flow logger
-visualizer_enabled                     0 # Turn on visualizer output (1=On, 0=Off)
-visualizer_outputfile                 NULL # Specifies the output log file for visualizer
-visualizer_zlevel                      6 # Compression level of the visualizer output log (0=no comp, 9=highest)
-trace_enabled                          0 # Turn on traces
-trace_components                    none # comma seperated list of traces to enable. Complete list found in trace_streams.tup. Default none
-trace_sampling_core                    0 # The core which is printed using CORE_DPRINTF. Default 0
-trace_sampling_memory_partition                   -1 # The memory partition which is printed using MEMPART_DPRINTF. Default -1 (i.e. all)
-enable_ptx_file_line_stats                    1 # Turn on PTX source line statistic profiling. (1 = On)
-ptx_line_stats_filename gpgpu_inst_stats.txt # Output file for PTX source line statistics.
-save_embedded_ptx                      0 # saves ptx files embedded in binary as <n>.ptx
-keep                                   0 # keep intermediate files created by GPGPU-Sim when interfacing with external programs
-gpgpu_ptx_save_converted_ptxplus                    0 # Saved converted ptxplus to a file
-ptx_opcode_latency_int         4,13,4,5,145 # Opcode latencies for integers <ADD,MAX,MUL,MAD,DIV>Default 1,1,19,25,145
-ptx_opcode_latency_fp          4,13,4,5,39 # Opcode latencies for single precision floating points <ADD,MAX,MUL,MAD,DIV>Default 1,1,1,1,30
-ptx_opcode_latency_dp         8,19,8,8,330 # Opcode latencies for double precision floating points <ADD,MAX,MUL,MAD,DIV>Default 8,8,8,8,335
-ptx_opcode_initiation_int            1,2,2,1,8 # Opcode initiation intervals for integers <ADD,MAX,MUL,MAD,DIV>Default 1,1,4,4,32
-ptx_opcode_initiation_fp            1,2,1,1,4 # Opcode initiation intervals for single precision floating points <ADD,MAX,MUL,MAD,DIV>Default 1,1,1,1,5
-ptx_opcode_initiation_dp         8,16,8,8,130 # Opcode initiation intervals for double precision floating points <ADD,MAX,MUL,MAD,DIV>Default 8,8,8,8,130
DRAM Timing Options:
nbk                                    16 # number of banks
CCD                                     2 # column to column delay
RRD                                     6 # minimal delay between activation of rows in different banks
RCD                                    12 # row to column delay
RAS                                    28 # time needed to activate row
RP                                     12 # time needed to precharge (deactivate) row
RC                                     40 # row cycle time
CDLR                                    5 # switching from write to read (changes tWTR)
WR                                     12 # last data-in to row precharge
CL                                     12 # CAS latency
WL                                      4 # Write latency
nbkgrp                                  4 # number of bank groups
CCDL                                    3 # column to column delay between accesses to different bank groups
RTPL                                    2 # read to precharge delay between accesses to different bank groups
Total number of memory sub partition = 12
addr_dec_mask[CHIP]  = 0000000000000000 	high:64 low:0
addr_dec_mask[BK]    = 000000000000e100 	high:16 low:8
addr_dec_mask[ROW]   = 000000000fff0000 	high:28 low:16
addr_dec_mask[COL]   = 0000000000001eff 	high:13 low:0
addr_dec_mask[BURST] = 000000000000003f 	high:6 low:0
sub_partition_id_mask = 0000000000000100
GPGPU-Sim uArch: clock freqs: 700000000.000000:700000000.000000:700000000.000000:924000000.000000
GPGPU-Sim uArch: clock periods: 0.00000000142857142857:0.00000000142857142857:0.00000000142857142857:0.00000000108225108225
*** Initializing Memory Statistics ***
GPGPU-Sim uArch: interconnect node map (shaderID+MemID to icntID)
GPGPU-Sim uArch: Memory nodes ID start from index: 15
GPGPU-Sim uArch:    0   1   2   3   4
GPGPU-Sim uArch:    5   6   7   8   9
GPGPU-Sim uArch:   10  11  12  13  14
GPGPU-Sim uArch:   15  16  17  18  19
GPGPU-Sim uArch:   20  21  22  23  24
GPGPU-Sim uArch:   25  26
GPGPU-Sim uArch: interconnect node reverse map (icntID to shaderID+MemID)
GPGPU-Sim uArch: Memory nodes start from ID: 15
GPGPU-Sim uArch:    0   1   2   3   4
GPGPU-Sim uArch:    5   6   7   8   9
GPGPU-Sim uArch:   10  11  12  13  14
GPGPU-Sim uArch:   15  16  17  18  19
GPGPU-Sim uArch:   20  21  22  23  24
GPGPU-Sim uArch:   25  26
20268b35c91b7ed3425c558353ee2ace  /home/scratch/adwait/applications/benchmarks/CUDA/TRA/gpgpu_ptx_sim__TRA
GPGPU-Sim uArch: performance model initialization complete.
GPGPU-Sim PTX: __cudaRegisterFatBinary, fat_cubin_handle = 1, filename=transpose.cu
self exe links to: /home/scratch/adwait/applications/benchmarks/CUDA/TRA/gpgpu_ptx_sim__TRA
Running md5sum using "md5sum /home/scratch/adwait/applications/benchmarks/CUDA/TRA/gpgpu_ptx_sim__TRA "
Running cuobjdump using "$CUDA_INSTALL_PATH/bin/cuobjdump -ptx -elf -sass /home/scratch/adwait/applications/benchmarks/CUDA/TRA/gpgpu_ptx_sim__TRA > _cuobjdump_complete_output_r0k532"
Parsing file _cuobjdump_complete_output_r0k532
######### cuobjdump parser ########
## Adding new section ELF
Adding arch: sm_20
Adding identifier: transpose.cu
## Adding new section PTX
Adding ptx filename: _cuobjdump_1.ptx
Adding arch: sm_20
Adding identifier: transpose.cu
Done parsing!!!
GPGPU-Sim PTX: __cudaRegisterFunction _Z15transpose_naivePfS_ii : hostFun 0x0x4048d7, fat_cubin_handle = 1
GPGPU-Sim PTX: allocating shared region for "__cuda___cuda_local_var_42723_32_non_const_block24" from 0x0 to 0x440 (shared memory space)
GPGPU-Sim PTX: instruction assembly for function '_Z9transposePfS_ii'...   done.
GPGPU-Sim PTX: finding reconvergence points for '_Z9transposePfS_ii'...
GPGPU-Sim PTX: Finding dominators for '_Z9transposePfS_ii'...
GPGPU-Sim PTX: Finding immediate dominators for '_Z9transposePfS_ii'...
GPGPU-Sim PTX: Finding postdominators for '_Z9transposePfS_ii'...
GPGPU-Sim PTX: Finding immediate postdominators for '_Z9transposePfS_ii'...
GPGPU-Sim PTX: pre-decoding instructions for '_Z9transposePfS_ii'...
GPGPU-Sim PTX: reconvergence points for _Z9transposePfS_ii...
GPGPU-Sim PTX:  1 (potential) branch divergence @  PC=0x088 (_1.ptx:81) @%p1 bra $Lt_0_2306;
GPGPU-Sim PTX:    immediate post dominator      @  PC=0x108 (_1.ptx:99) mov.u64 %rd1, __cuda___cuda_local_var_42723_32_non_const_block24;
GPGPU-Sim PTX:  2 (potential) branch divergence @  PC=0x160 (_1.ptx:111) @%p2 bra $Lt_0_2818;
GPGPU-Sim PTX:    immediate post dominator      @  PC=0x1d8 (_1.ptx:129) exit;
GPGPU-Sim PTX: ... end of reconvergence points for _Z9transposePfS_ii
GPGPU-Sim PTX: ... done pre-decoding instructions for '_Z9transposePfS_ii'.
GPGPU-Sim PTX: instruction assembly for function '_Z15transpose_naivePfS_ii'...   done.
GPGPU-Sim PTX: finding reconvergence points for '_Z15transpose_naivePfS_ii'...
GPGPU-Sim PTX: Finding dominators for '_Z15transpose_naivePfS_ii'...
GPGPU-Sim PTX: Finding immediate dominators for '_Z15transpose_naivePfS_ii'...
GPGPU-Sim PTX: Finding postdominators for '_Z15transpose_naivePfS_ii'...
GPGPU-Sim PTX: Finding immediate postdominators for '_Z15transpose_naivePfS_ii'...
GPGPU-Sim PTX: pre-decoding instructions for '_Z15transpose_naivePfS_ii'...
GPGPU-Sim PTX: reconvergence points for _Z15transpose_naivePfS_ii...
GPGPU-Sim PTX:  1 (potential) branch divergence @  PC=0x278 (_1.ptx:164) @%p1 bra $Lt_1_1282;
GPGPU-Sim PTX:    immediate post dominator      @  PC=0x2f0 (_1.ptx:182) exit;
GPGPU-Sim PTX: ... end of reconvergence points for _Z15transpose_naivePfS_ii
GPGPU-Sim PTX: ... done pre-decoding instructions for '_Z15transpose_naivePfS_ii'.
GPGPU-Sim PTX: finished parsing EMBEDDED .ptx file _1.ptx
Adding _cuobjdump_1.ptx with cubin handle 1
GPGPU-Sim PTX: extracting embedded .ptx to temporary file "_ptx_EgkSXv"
Running: cat _ptx_EgkSXv | sed 's/.version 1.5/.version 1.4/' | sed 's/, texmode_independent//' | sed 's/\(\.extern \.const\[1\] .b8 \w\+\)\[\]/\1\[1\]/' | sed 's/const\[.\]/const\[0\]/g' > _ptx2_m9PZRY
GPGPU-Sim PTX: generating ptxinfo using "$CUDA_INSTALL_PATH/bin/ptxas --gpu-name=sm_20 -v _ptx2_m9PZRY --output-file  /dev/null 2> _ptx_EgkSXvinfo"
GPGPU-Sim PTX: Kernel '_Z15transpose_naivePfS_ii' : regs=8, lmem=0, smem=0, cmem=56
GPGPU-Sim PTX: Kernel '_Z9transposePfS_ii' : regs=9, lmem=0, smem=1088, cmem=56
GPGPU-Sim PTX: removing ptxinfo using "rm -f _ptx_EgkSXv _ptx2_m9PZRY _ptx_EgkSXvinfo"
GPGPU-Sim PTX: loading globals with explicit initializers... 
GPGPU-Sim PTX: finished loading globals (0 bytes total).
GPGPU-Sim PTX: loading constants with explicit initializers...  done.
GPGPU-Sim PTX: __cudaRegisterFunction _Z9transposePfS_ii : hostFun 0x0x4047e7, fat_cubin_handle = 1

GPGPU-Sim PTX: cudaLaunch for 0x0x4048d7 (mode=performance simulation) on stream 0
GPGPU-Sim PTX: pushing kernel '_Z15transpose_naivePfS_ii' to stream 0, gridDim= (16,256,1) blockDim = (16,16,1) 
kernel '_Z15transpose_naivePfS_ii' transfer to GPU hardware scheduler
GPGPU-Sim uArch: Shader 1 bind to kernel 1 '_Z15transpose_naivePfS_ii'
GPGPU-Sim uArch: CTA/core = 6, limited by: threads
GPGPU-Sim uArch: core:  1, cta: 0 initialized @(1,0)
GPGPU-Sim uArch: Shader 2 bind to kernel 1 '_Z15transpose_naivePfS_ii'
GPGPU-Sim uArch: core:  2, cta: 0 initialized @(1,0)
GPGPU-Sim uArch: Shader 3 bind to kernel 1 '_Z15transpose_naivePfS_ii'
GPGPU-Sim uArch: core:  3, cta: 0 initialized @(1,0)
GPGPU-Sim uArch: Shader 4 bind to kernel 1 '_Z15transpose_naivePfS_ii'
GPGPU-Sim uArch: core:  4, cta: 0 initialized @(1,0)
GPGPU-Sim uArch: Shader 5 bind to kernel 1 '_Z15transpose_naivePfS_ii'
GPGPU-Sim uArch: core:  5, cta: 0 initialized @(1,0)
GPGPU-Sim uArch: Shader 6 bind to kernel 1 '_Z15transpose_naivePfS_ii'
GPGPU-Sim uArch: core:  6, cta: 0 initialized @(1,0)
GPGPU-Sim uArch: Shader 7 bind to kernel 1 '_Z15transpose_naivePfS_ii'
GPGPU-Sim uArch: core:  7, cta: 0 initialized @(1,0)
GPGPU-Sim uArch: Shader 8 bind to kernel 1 '_Z15transpose_naivePfS_ii'
GPGPU-Sim uArch: core:  8, cta: 0 initialized @(1,0)
GPGPU-Sim uArch: Shader 9 bind to kernel 1 '_Z15transpose_naivePfS_ii'
GPGPU-Sim uArch: core:  9, cta: 0 initialized @(1,0)
GPGPU-Sim uArch: Shader 10 bind to kernel 1 '_Z15transpose_naivePfS_ii'
GPGPU-Sim uArch: core: 10, cta: 0 initialized @(1,0)
GPGPU-Sim uArch: Shader 11 bind to kernel 1 '_Z15transpose_naivePfS_ii'
GPGPU-Sim uArch: core: 11, cta: 0 initialized @(1,0)
GPGPU-Sim uArch: Shader 12 bind to kernel 1 '_Z15transpose_naivePfS_ii'
GPGPU-Sim uArch: core: 12, cta: 0 initialized @(1,0)
GPGPU-Sim uArch: Shader 13 bind to kernel 1 '_Z15transpose_naivePfS_ii'
GPGPU-Sim uArch: core: 13, cta: 0 initialized @(1,0)
GPGPU-Sim uArch: Shader 14 bind to kernel 1 '_Z15transpose_naivePfS_ii'
GPGPU-Sim uArch: core: 14, cta: 0 initialized @(1,0)
GPGPU-Sim uArch: Shader 0 bind to kernel 1 '_Z15transpose_naivePfS_ii'
GPGPU-Sim uArch: core:  0, cta: 0 initialized @(1,0)
GPGPU-Sim uArch: core:  1, cta: 1 initialized @(2,0)
GPGPU-Sim uArch: core:  2, cta: 1 initialized @(2,0)
GPGPU-Sim uArch: core:  3, cta: 1 initialized @(2,0)
GPGPU-Sim uArch: core:  4, cta: 1 initialized @(2,0)
GPGPU-Sim uArch: core:  5, cta: 1 initialized @(2,0)
GPGPU-Sim uArch: core:  6, cta: 1 initialized @(2,0)
GPGPU-Sim uArch: core:  7, cta: 1 initialized @(2,0)
GPGPU-Sim uArch: core:  8, cta: 1 initialized @(2,0)
GPGPU-Sim uArch: core:  9, cta: 1 initialized @(2,0)
GPGPU-Sim uArch: core: 10, cta: 1 initialized @(2,0)
GPGPU-Sim uArch: core: 11, cta: 1 initialized @(2,0)
GPGPU-Sim uArch: core: 12, cta: 1 initialized @(2,0)
GPGPU-Sim uArch: core: 13, cta: 1 initialized @(2,0)
GPGPU-Sim uArch: core: 14, cta: 1 initialized @(2,0)
GPGPU-Sim uArch: core:  0, cta: 1 initialized @(2,0)
GPGPU-Sim uArch: core:  1, cta: 2 initialized @(3,0)
GPGPU-Sim uArch: core:  2, cta: 2 initialized @(3,0)
GPGPU-Sim uArch: core:  3, cta: 2 initialized @(3,0)
GPGPU-Sim uArch: core:  4, cta: 2 initialized @(3,0)
GPGPU-Sim uArch: core:  5, cta: 2 initialized @(3,0)
GPGPU-Sim uArch: core:  6, cta: 2 initialized @(3,0)
GPGPU-Sim uArch: core:  7, cta: 2 initialized @(3,0)
GPGPU-Sim uArch: core:  8, cta: 2 initialized @(3,0)
GPGPU-Sim uArch: core:  9, cta: 2 initialized @(3,0)
GPGPU-Sim uArch: core: 10, cta: 2 initialized @(3,0)
GPGPU-Sim uArch: core: 11, cta: 2 initialized @(3,0)
GPGPU-Sim uArch: core: 12, cta: 2 initialized @(3,0)
GPGPU-Sim uArch: core: 13, cta: 2 initialized @(3,0)
GPGPU-Sim uArch: core: 14, cta: 2 initialized @(3,0)
GPGPU-Sim uArch: core:  0, cta: 2 initialized @(3,0)
GPGPU-Sim uArch: core:  1, cta: 3 initialized @(4,0)
GPGPU-Sim uArch: core:  2, cta: 3 initialized @(4,0)
GPGPU-Sim uArch: core:  3, cta: 3 initialized @(4,0)
GPGPU-Sim uArch: core:  4, cta: 3 initialized @(4,0)
GPGPU-Sim uArch: core:  5, cta: 3 initialized @(4,0)
GPGPU-Sim uArch: core:  6, cta: 3 initialized @(4,0)
GPGPU-Sim uArch: core:  7, cta: 3 initialized @(4,0)
GPGPU-Sim uArch: core:  8, cta: 3 initialized @(4,0)
GPGPU-Sim uArch: core:  9, cta: 3 initialized @(4,0)
GPGPU-Sim uArch: core: 10, cta: 3 initialized @(4,0)
GPGPU-Sim uArch: core: 11, cta: 3 initialized @(4,0)
GPGPU-Sim uArch: core: 12, cta: 3 initialized @(4,0)
GPGPU-Sim uArch: core: 13, cta: 3 initialized @(4,0)
GPGPU-Sim uArch: core: 14, cta: 3 initialized @(4,0)
GPGPU-Sim uArch: core:  0, cta: 3 initialized @(4,0)
GPGPU-Sim uArch: core:  1, cta: 4 initialized @(5,0)
GPGPU-Sim uArch: core:  2, cta: 4 initialized @(5,0)
GPGPU-Sim uArch: core:  3, cta: 4 initialized @(5,0)
GPGPU-Sim uArch: core:  4, cta: 4 initialized @(5,0)
GPGPU-Sim uArch: core:  5, cta: 4 initialized @(5,0)
GPGPU-Sim uArch: core:  6, cta: 4 initialized @(5,0)
GPGPU-Sim uArch: core:  7, cta: 4 initialized @(5,0)
GPGPU-Sim uArch: core:  8, cta: 4 initialized @(5,0)
GPGPU-Sim uArch: core:  9, cta: 4 initialized @(5,0)
GPGPU-Sim uArch: core: 10, cta: 4 initialized @(5,0)
GPGPU-Sim uArch: core: 11, cta: 4 initialized @(5,0)
GPGPU-Sim uArch: core: 12, cta: 4 initialized @(5,0)
GPGPU-Sim uArch: core: 13, cta: 4 initialized @(5,0)
GPGPU-Sim uArch: core: 14, cta: 4 initialized @(5,0)
GPGPU-Sim uArch: core:  0, cta: 4 initialized @(5,0)
GPGPU-Sim uArch: core:  1, cta: 5 initialized @(6,0)
GPGPU-Sim uArch: core:  2, cta: 5 initialized @(6,0)
GPGPU-Sim uArch: core:  3, cta: 5 initialized @(6,0)
GPGPU-Sim uArch: core:  4, cta: 5 initialized @(6,0)
GPGPU-Sim uArch: core:  5, cta: 5 initialized @(6,0)
GPGPU-Sim uArch: core:  6, cta: 5 initialized @(6,0)
GPGPU-Sim uArch: core:  7, cta: 5 initialized @(6,0)
GPGPU-Sim uArch: core:  8, cta: 5 initialized @(6,0)
GPGPU-Sim uArch: core:  9, cta: 5 initialized @(6,0)
GPGPU-Sim uArch: core: 10, cta: 5 initialized @(6,0)
GPGPU-Sim uArch: core: 11, cta: 5 initialized @(6,0)
GPGPU-Sim uArch: core: 12, cta: 5 initialized @(6,0)
GPGPU-Sim uArch: core: 13, cta: 5 initialized @(6,0)
GPGPU-Sim uArch: core: 14, cta: 5 initialized @(6,0)
GPGPU-Sim uArch: core:  0, cta: 5 initialized @(6,0)
GPGPU-Sim uArch: cycles simulated: 500  inst.: 92000 (ipc=184.0) sim_rate=92000 (inst/sec) elapsed = 0:0:00:01 / Tue Apr 16 16:48:47 2019
GPGPU-Sim PTX: 100000 instructions simulated : ctaid=(0,5,0) tid=(15,9,0)
GPGPU-Sim PTX: 200000 instructions simulated : ctaid=(6,1,0) tid=(15,15,0)
GPGPU-Sim PTX: 300000 instructions simulated : ctaid=(1,1,0) tid=(15,11,0)
GPGPU-Sim PTX: 400000 instructions simulated : ctaid=(14,4,0) tid=(15,7,0)
GPGPU-Sim PTX: 500000 instructions simulated : ctaid=(7,2,0) tid=(15,7,0)
GPGPU-Sim uArch: cycles simulated: 1500  inst.: 520928 (ipc=347.3) sim_rate=173642 (inst/sec) elapsed = 0:0:00:03 / Tue Apr 16 16:48:49 2019
GPGPU-Sim PTX: 600000 instructions simulated : ctaid=(5,3,0) tid=(15,7,0)
GPGPU-Sim uArch: cycles simulated: 2000  inst.: 619904 (ipc=310.0) sim_rate=154976 (inst/sec) elapsed = 0:0:00:04 / Tue Apr 16 16:48:50 2019
GPGPU-Sim uArch: cycles simulated: 3000  inst.: 630688 (ipc=210.2) sim_rate=126137 (inst/sec) elapsed = 0:0:00:05 / Tue Apr 16 16:48:51 2019
GPGPU-Sim uArch: cycles simulated: 4500  inst.: 635104 (ipc=141.1) sim_rate=105850 (inst/sec) elapsed = 0:0:00:06 / Tue Apr 16 16:48:52 2019
GPGPU-Sim uArch: cycles simulated: 5500  inst.: 637472 (ipc=115.9) sim_rate=91067 (inst/sec) elapsed = 0:0:00:07 / Tue Apr 16 16:48:53 2019
GPGPU-Sim uArch: cycles simulated: 7000  inst.: 643840 (ipc=92.0) sim_rate=80480 (inst/sec) elapsed = 0:0:00:08 / Tue Apr 16 16:48:54 2019
GPGPU-Sim uArch: cycles simulated: 9000  inst.: 649568 (ipc=72.2) sim_rate=72174 (inst/sec) elapsed = 0:0:00:09 / Tue Apr 16 16:48:55 2019
GPGPU-Sim uArch: cycles simulated: 11000  inst.: 658848 (ipc=59.9) sim_rate=65884 (inst/sec) elapsed = 0:0:00:10 / Tue Apr 16 16:48:56 2019
GPGPU-Sim uArch: cycles simulated: 13000  inst.: 666240 (ipc=51.2) sim_rate=60567 (inst/sec) elapsed = 0:0:00:11 / Tue Apr 16 16:48:57 2019
GPGPU-Sim PTX: 700000 instructions simulated : ctaid=(9,0,0) tid=(15,15,0)
GPGPU-Sim uArch: Shader 12 finished CTA #0 (15347,0), 5 CTAs running
GPGPU-Sim uArch: core: 12, cta: 0 initialized @(15348,0)
GPGPU-Sim uArch: cycles simulated: 15500  inst.: 681248 (ipc=44.0) sim_rate=56770 (inst/sec) elapsed = 0:0:00:12 / Tue Apr 16 16:48:58 2019
GPGPU-Sim uArch: Shader 9 finished CTA #0 (15656,0), 5 CTAs running
GPGPU-Sim uArch: core:  9, cta: 0 initialized @(15657,0)
GPGPU-Sim uArch: Shader 5 finished CTA #0 (16798,0), 5 CTAs running
GPGPU-Sim uArch: core:  5, cta: 0 initialized @(16799,0)
GPGPU-Sim uArch: cycles simulated: 17000  inst.: 693696 (ipc=40.8) sim_rate=53361 (inst/sec) elapsed = 0:0:00:13 / Tue Apr 16 16:48:59 2019
GPGPU-Sim uArch: Shader 1 finished CTA #0 (17328,0), 5 CTAs running
GPGPU-Sim uArch: core:  1, cta: 0 initialized @(17329,0)
GPGPU-Sim uArch: Shader 11 finished CTA #0 (17993,0), 5 CTAs running
GPGPU-Sim uArch: core: 11, cta: 0 initialized @(17994,0)
GPGPU-Sim uArch: Shader 2 finished CTA #0 (18055,0), 5 CTAs running
GPGPU-Sim uArch: core:  2, cta: 0 initialized @(18056,0)
GPGPU-Sim uArch: Shader 8 finished CTA #0 (18362,0), 5 CTAs running
GPGPU-Sim uArch: core:  8, cta: 0 initialized @(18363,0)
GPGPU-Sim uArch: Shader 7 finished CTA #0 (18366,0), 5 CTAs running
GPGPU-Sim uArch: core:  7, cta: 0 initialized @(18367,0)
GPGPU-Sim uArch: Shader 13 finished CTA #0 (18404,0), 5 CTAs running
GPGPU-Sim uArch: core: 13, cta: 0 initialized @(18405,0)
GPGPU-Sim uArch: cycles simulated: 18500  inst.: 727072 (ipc=39.3) sim_rate=51933 (inst/sec) elapsed = 0:0:00:14 / Tue Apr 16 16:49:00 2019
GPGPU-Sim uArch: Shader 0 finished CTA #0 (18580,0), 5 CTAs running
GPGPU-Sim uArch: core:  0, cta: 0 initialized @(18581,0)
GPGPU-Sim uArch: Shader 10 finished CTA #0 (18739,0), 5 CTAs running
GPGPU-Sim uArch: core: 10, cta: 0 initialized @(18740,0)
GPGPU-Sim uArch: Shader 3 finished CTA #0 (18747,0), 5 CTAs running
GPGPU-Sim uArch: core:  3, cta: 0 initialized @(18748,0)
GPGPU-Sim uArch: Shader 6 finished CTA #0 (19119,0), 5 CTAs running
GPGPU-Sim uArch: core:  6, cta: 0 initialized @(19120,0)
GPGPU-Sim uArch: Shader 4 finished CTA #0 (19282,0), 5 CTAs running
GPGPU-Sim uArch: core:  4, cta: 0 initialized @(19283,0)
GPGPU-Sim uArch: Shader 14 finished CTA #0 (19471,0), 5 CTAs running
GPGPU-Sim uArch: core: 14, cta: 0 initialized @(19472,0)
GPGPU-Sim uArch: cycles simulated: 19500  inst.: 761376 (ipc=39.0) sim_rate=50758 (inst/sec) elapsed = 0:0:00:15 / Tue Apr 16 16:49:01 2019
GPGPU-Sim uArch: Shader 12 finished CTA #1 (19784,0), 5 CTAs running
GPGPU-Sim uArch: core: 12, cta: 1 initialized @(19785,0)
GPGPU-Sim uArch: Shader 11 finished CTA #1 (19792,0), 5 CTAs running
GPGPU-Sim uArch: core: 11, cta: 1 initialized @(19793,0)
GPGPU-Sim PTX: 800000 instructions simulated : ctaid=(13,4,0) tid=(15,9,0)
GPGPU-Sim uArch: Shader 11 finished CTA #2 (20170,0), 5 CTAs running
GPGPU-Sim uArch: core: 11, cta: 2 initialized @(20171,0)
GPGPU-Sim uArch: Shader 11 finished CTA #3 (20335,0), 5 CTAs running
GPGPU-Sim uArch: core: 11, cta: 3 initialized @(20336,0)
GPGPU-Sim uArch: cycles simulated: 20500  inst.: 784256 (ipc=38.3) sim_rate=49016 (inst/sec) elapsed = 0:0:00:16 / Tue Apr 16 16:49:02 2019
GPGPU-Sim uArch: Shader 5 finished CTA #1 (21259,0), 5 CTAs running
GPGPU-Sim uArch: core:  5, cta: 1 initialized @(21260,0)
GPGPU-Sim uArch: Shader 6 finished CTA #1 (21384,0), 5 CTAs running
GPGPU-Sim uArch: core:  6, cta: 1 initialized @(21385,0)
GPGPU-Sim uArch: cycles simulated: 21500  inst.: 805088 (ipc=37.4) sim_rate=47358 (inst/sec) elapsed = 0:0:00:17 / Tue Apr 16 16:49:03 2019
GPGPU-Sim uArch: Shader 14 finished CTA #1 (21960,0), 5 CTAs running
GPGPU-Sim uArch: core: 14, cta: 1 initialized @(21961,0)
GPGPU-Sim uArch: cycles simulated: 23000  inst.: 835328 (ipc=36.3) sim_rate=46407 (inst/sec) elapsed = 0:0:00:18 / Tue Apr 16 16:49:04 2019
GPGPU-Sim uArch: Shader 11 finished CTA #4 (23348,0), 5 CTAs running
GPGPU-Sim uArch: core: 11, cta: 4 initialized @(23349,0)
GPGPU-Sim uArch: Shader 13 finished CTA #1 (23406,0), 5 CTAs running
GPGPU-Sim uArch: core: 13, cta: 1 initialized @(23407,0)
GPGPU-Sim uArch: Shader 14 finished CTA #2 (23759,0), 5 CTAs running
GPGPU-Sim uArch: core: 14, cta: 2 initialized @(23760,0)
GPGPU-Sim uArch: Shader 1 finished CTA #1 (23767,0), 5 CTAs running
GPGPU-Sim uArch: core:  1, cta: 1 initialized @(23768,0)
GPGPU-Sim uArch: Shader 8 finished CTA #1 (23828,0), 5 CTAs running
GPGPU-Sim uArch: core:  8, cta: 1 initialized @(23829,0)
GPGPU-Sim uArch: Shader 2 finished CTA #1 (23858,0), 5 CTAs running
GPGPU-Sim uArch: core:  2, cta: 1 initialized @(23859,0)
GPGPU-Sim PTX: 900000 instructions simulated : ctaid=(4,4,0) tid=(15,11,0)
GPGPU-Sim uArch: Shader 5 finished CTA #2 (23937,0), 5 CTAs running
GPGPU-Sim uArch: core:  5, cta: 2 initialized @(23938,0)
GPGPU-Sim uArch: Shader 3 finished CTA #1 (24203,0), 5 CTAs running
GPGPU-Sim uArch: core:  3, cta: 1 initialized @(24204,0)
GPGPU-Sim uArch: Shader 5 finished CTA #3 (24446,0), 5 CTAs running
GPGPU-Sim uArch: core:  5, cta: 3 initialized @(24447,0)
GPGPU-Sim uArch: cycles simulated: 24500  inst.: 887136 (ipc=36.2) sim_rate=46691 (inst/sec) elapsed = 0:0:00:19 / Tue Apr 16 16:49:05 2019
GPGPU-Sim uArch: Shader 7 finished CTA #1 (24702,0), 5 CTAs running
GPGPU-Sim uArch: core:  7, cta: 1 initialized @(24703,0)
GPGPU-Sim uArch: Shader 1 finished CTA #2 (24958,0), 5 CTAs running
GPGPU-Sim uArch: core:  1, cta: 2 initialized @(24959,0)
GPGPU-Sim uArch: Shader 4 finished CTA #1 (25162,0), 5 CTAs running
GPGPU-Sim uArch: core:  4, cta: 1 initialized @(25163,0)
GPGPU-Sim uArch: Shader 1 finished CTA #3 (25265,0), 5 CTAs running
GPGPU-Sim uArch: core:  1, cta: 3 initialized @(25266,0)
GPGPU-Sim uArch: Shader 3 finished CTA #2 (25476,0), 5 CTAs running
GPGPU-Sim uArch: core:  3, cta: 2 initialized @(25477,0)
GPGPU-Sim uArch: Shader 10 finished CTA #1 (25480,0), 5 CTAs running
GPGPU-Sim uArch: core: 10, cta: 1 initialized @(25481,0)
GPGPU-Sim uArch: cycles simulated: 25500  inst.: 917440 (ipc=36.0) sim_rate=45872 (inst/sec) elapsed = 0:0:00:20 / Tue Apr 16 16:49:06 2019
GPGPU-Sim uArch: Shader 1 finished CTA #4 (25725,0), 5 CTAs running
GPGPU-Sim uArch: core:  1, cta: 4 initialized @(25726,0)
GPGPU-Sim uArch: Shader 6 finished CTA #2 (25834,0), 5 CTAs running
GPGPU-Sim uArch: core:  6, cta: 2 initialized @(25835,0)
GPGPU-Sim uArch: Shader 6 finished CTA #3 (25991,0), 5 CTAs running
GPGPU-Sim uArch: core:  6, cta: 3 initialized @(25992,0)
GPGPU-Sim uArch: Shader 14 finished CTA #3 (26500,0), 5 CTAs running
GPGPU-Sim uArch: core: 14, cta: 3 initialized @(26501,0)
GPGPU-Sim uArch: Shader 7 finished CTA #2 (26586,0), 5 CTAs running
GPGPU-Sim uArch: core:  7, cta: 2 initialized @(26587,0)
GPGPU-Sim PTX: 1000000 instructions simulated : ctaid=(3,8,0) tid=(15,9,0)
GPGPU-Sim uArch: Shader 2 finished CTA #2 (26645,0), 5 CTAs running
GPGPU-Sim uArch: core:  2, cta: 2 initialized @(26646,0)
GPGPU-Sim uArch: Shader 0 finished CTA #1 (26656,0), 5 CTAs running
GPGPU-Sim uArch: core:  0, cta: 1 initialized @(26657,0)
GPGPU-Sim uArch: Shader 0 finished CTA #2 (26867,0), 5 CTAs running
GPGPU-Sim uArch: core:  0, cta: 2 initialized @(26868,0)
GPGPU-Sim uArch: cycles simulated: 27000  inst.: 980192 (ipc=36.3) sim_rate=46675 (inst/sec) elapsed = 0:0:00:21 / Tue Apr 16 16:49:07 2019
GPGPU-Sim uArch: Shader 5 finished CTA #4 (27104,0), 5 CTAs running
GPGPU-Sim uArch: core:  5, cta: 4 initialized @(27105,0)
GPGPU-Sim uArch: Shader 2 finished CTA #3 (27218,0), 5 CTAs running
GPGPU-Sim uArch: core:  2, cta: 3 initialized @(27219,0)
GPGPU-Sim uArch: Shader 6 finished CTA #4 (27349,0), 5 CTAs running
GPGPU-Sim uArch: core:  6, cta: 4 initialized @(27350,0)
GPGPU-Sim uArch: Shader 13 finished CTA #2 (27400,0), 5 CTAs running
GPGPU-Sim uArch: core: 13, cta: 2 initialized @(27401,0)
GPGPU-Sim uArch: Shader 1 finished CTA #5 (27485,0), 5 CTAs running
GPGPU-Sim uArch: core:  1, cta: 5 initialized @(27486,0)
GPGPU-Sim uArch: Shader 4 finished CTA #2 (27556,0), 5 CTAs running
GPGPU-Sim uArch: core:  4, cta: 2 initialized @(27557,0)
GPGPU-Sim uArch: Shader 13 finished CTA #3 (27590,0), 5 CTAs running
GPGPU-Sim uArch: core: 13, cta: 3 initialized @(27591,0)
GPGPU-Sim uArch: cycles simulated: 28000  inst.: 1029600 (ipc=36.8) sim_rate=46800 (inst/sec) elapsed = 0:0:00:22 / Tue Apr 16 16:49:08 2019
GPGPU-Sim uArch: Shader 7 finished CTA #3 (28147,0), 5 CTAs running
GPGPU-Sim uArch: core:  7, cta: 3 initialized @(28148,0)
GPGPU-Sim uArch: Shader 4 finished CTA #3 (28262,0), 5 CTAs running
GPGPU-Sim uArch: core:  4, cta: 3 initialized @(28263,0)
GPGPU-Sim uArch: Shader 2 finished CTA #4 (28268,0), 5 CTAs running
GPGPU-Sim uArch: core:  2, cta: 4 initialized @(28269,0)
GPGPU-Sim uArch: Shader 9 finished CTA #1 (28335,0), 5 CTAs running
GPGPU-Sim uArch: core:  9, cta: 1 initialized @(28336,0)
GPGPU-Sim uArch: Shader 4 finished CTA #4 (28397,0), 5 CTAs running
GPGPU-Sim uArch: core:  4, cta: 4 initialized @(28398,0)
GPGPU-Sim uArch: Shader 0 finished CTA #3 (28454,0), 5 CTAs running
GPGPU-Sim uArch: core:  0, cta: 3 initialized @(28455,0)
GPGPU-Sim uArch: Shader 3 finished CTA #3 (28559,0), 5 CTAs running
GPGPU-Sim uArch: core:  3, cta: 3 initialized @(28560,0)
GPGPU-Sim uArch: Shader 8 finished CTA #2 (28580,0), 5 CTAs running
GPGPU-Sim uArch: core:  8, cta: 2 initialized @(28581,0)
GPGPU-Sim uArch: Shader 10 finished CTA #2 (28695,0), 5 CTAs running
GPGPU-Sim uArch: core: 10, cta: 2 initialized @(28696,0)
GPGPU-Sim uArch: Shader 8 finished CTA #3 (28822,0), 5 CTAs running
GPGPU-Sim uArch: core:  8, cta: 3 initialized @(28823,0)
GPGPU-Sim uArch: cycles simulated: 29000  inst.: 1066752 (ipc=36.8) sim_rate=46380 (inst/sec) elapsed = 0:0:00:23 / Tue Apr 16 16:49:09 2019
GPGPU-Sim PTX: 1100000 instructions simulated : ctaid=(1,9,0) tid=(15,5,0)
GPGPU-Sim uArch: Shader 9 finished CTA #2 (29024,0), 5 CTAs running
GPGPU-Sim uArch: core:  9, cta: 2 initialized @(29025,0)
GPGPU-Sim uArch: Shader 13 finished CTA #4 (29149,0), 5 CTAs running
GPGPU-Sim uArch: core: 13, cta: 4 initialized @(29150,0)
GPGPU-Sim uArch: Shader 14 finished CTA #4 (29224,0), 5 CTAs running
GPGPU-Sim uArch: core: 14, cta: 4 initialized @(29225,0)
GPGPU-Sim uArch: Shader 9 finished CTA #3 (29322,0), 5 CTAs running
GPGPU-Sim uArch: core:  9, cta: 3 initialized @(29323,0)
GPGPU-Sim uArch: Shader 10 finished CTA #3 (29397,0), 5 CTAs running
GPGPU-Sim uArch: core: 10, cta: 3 initialized @(29398,0)
GPGPU-Sim uArch: cycles simulated: 29500  inst.: 1088960 (ipc=36.9) sim_rate=45373 (inst/sec) elapsed = 0:0:00:24 / Tue Apr 16 16:49:10 2019
GPGPU-Sim uArch: Shader 9 finished CTA #4 (29944,0), 5 CTAs running
GPGPU-Sim uArch: core:  9, cta: 4 initialized @(29945,0)
GPGPU-Sim uArch: Shader 3 finished CTA #4 (30732,0), 5 CTAs running
GPGPU-Sim uArch: core:  3, cta: 4 initialized @(30733,0)
GPGPU-Sim uArch: Shader 11 finished CTA #5 (30739,0), 5 CTAs running
GPGPU-Sim uArch: core: 11, cta: 5 initialized @(30740,0)
GPGPU-Sim uArch: Shader 8 finished CTA #4 (30845,0), 5 CTAs running
GPGPU-Sim uArch: core:  8, cta: 4 initialized @(30846,0)
GPGPU-Sim uArch: cycles simulated: 31000  inst.: 1140352 (ipc=36.8) sim_rate=45614 (inst/sec) elapsed = 0:0:00:25 / Tue Apr 16 16:49:11 2019
GPGPU-Sim uArch: Shader 0 finished CTA #4 (31122,0), 5 CTAs running
GPGPU-Sim uArch: core:  0, cta: 4 initialized @(31123,0)
GPGPU-Sim uArch: Shader 12 finished CTA #2 (31488,0), 5 CTAs running
GPGPU-Sim uArch: core: 12, cta: 2 initialized @(31489,0)
GPGPU-Sim PTX: 1200000 instructions simulated : ctaid=(15,8,0) tid=(15,9,0)
GPGPU-Sim uArch: Shader 7 finished CTA #4 (32022,0), 5 CTAs running
GPGPU-Sim uArch: core:  7, cta: 4 initialized @(32023,0)
GPGPU-Sim uArch: Shader 12 finished CTA #3 (32196,0), 5 CTAs running
GPGPU-Sim uArch: core: 12, cta: 3 initialized @(32197,0)
GPGPU-Sim uArch: cycles simulated: 32500  inst.: 1187488 (ipc=36.5) sim_rate=45672 (inst/sec) elapsed = 0:0:00:26 / Tue Apr 16 16:49:12 2019
GPGPU-Sim uArch: Shader 9 finished CTA #5 (32647,0), 5 CTAs running
GPGPU-Sim uArch: core:  9, cta: 5 initialized @(32648,0)
GPGPU-Sim uArch: Shader 2 finished CTA #5 (32864,0), 5 CTAs running
GPGPU-Sim uArch: core:  2, cta: 5 initialized @(32865,0)
GPGPU-Sim uArch: Shader 6 finished CTA #5 (32932,0), 5 CTAs running
GPGPU-Sim uArch: core:  6, cta: 5 initialized @(32933,0)
GPGPU-Sim uArch: Shader 4 finished CTA #5 (32936,0), 5 CTAs running
GPGPU-Sim uArch: core:  4, cta: 5 initialized @(32937,0)
GPGPU-Sim uArch: Shader 0 finished CTA #5 (33128,0), 5 CTAs running
GPGPU-Sim uArch: core:  0, cta: 5 initialized @(33129,0)
GPGPU-Sim uArch: Shader 5 finished CTA #5 (33332,0), 5 CTAs running
GPGPU-Sim uArch: core:  5, cta: 5 initialized @(33333,0)
GPGPU-Sim uArch: cycles simulated: 33500  inst.: 1242912 (ipc=37.1) sim_rate=46033 (inst/sec) elapsed = 0:0:00:27 / Tue Apr 16 16:49:13 2019
GPGPU-Sim uArch: Shader 13 finished CTA #5 (33712,0), 5 CTAs running
GPGPU-Sim uArch: core: 13, cta: 5 initialized @(33713,0)
GPGPU-Sim uArch: Shader 10 finished CTA #4 (33763,0), 5 CTAs running
GPGPU-Sim uArch: core: 10, cta: 4 initialized @(33764,0)
GPGPU-Sim uArch: Shader 7 finished CTA #5 (33807,0), 5 CTAs running
GPGPU-Sim uArch: core:  7, cta: 5 initialized @(33808,0)
GPGPU-Sim PTX: 1300000 instructions simulated : ctaid=(7,8,0) tid=(15,1,0)
GPGPU-Sim uArch: Shader 12 finished CTA #4 (34333,0), 5 CTAs running
GPGPU-Sim uArch: core: 12, cta: 4 initialized @(34334,0)
GPGPU-Sim uArch: Shader 14 finished CTA #5 (34405,0), 5 CTAs running
GPGPU-Sim uArch: core: 14, cta: 5 initialized @(34406,0)
GPGPU-Sim uArch: cycles simulated: 34500  inst.: 1277600 (ipc=37.0) sim_rate=45628 (inst/sec) elapsed = 0:0:00:28 / Tue Apr 16 16:49:14 2019
GPGPU-Sim uArch: cycles simulated: 35000  inst.: 1300480 (ipc=37.2) sim_rate=44844 (inst/sec) elapsed = 0:0:00:29 / Tue Apr 16 16:49:15 2019
GPGPU-Sim uArch: Shader 3 finished CTA #5 (35123,0), 5 CTAs running
GPGPU-Sim uArch: core:  3, cta: 5 initialized @(35124,0)
GPGPU-Sim uArch: Shader 4 finished CTA #0 (35185,0), 5 CTAs running
GPGPU-Sim uArch: core:  4, cta: 0 initialized @(35186,0)
GPGPU-Sim uArch: Shader 6 finished CTA #0 (35275,0), 5 CTAs running
GPGPU-Sim uArch: core:  6, cta: 0 initialized @(35276,0)
GPGPU-Sim uArch: Shader 8 finished CTA #5 (35340,0), 5 CTAs running
GPGPU-Sim uArch: core:  8, cta: 5 initialized @(35341,0)
GPGPU-Sim uArch: Shader 9 finished CTA #0 (35477,0), 5 CTAs running
GPGPU-Sim uArch: core:  9, cta: 0 initialized @(35478,0)
GPGPU-Sim uArch: Shader 10 finished CTA #5 (35555,0), 5 CTAs running
GPGPU-Sim uArch: core: 10, cta: 5 initialized @(35556,0)
GPGPU-Sim uArch: Shader 2 finished CTA #0 (35901,0), 5 CTAs running
GPGPU-Sim uArch: core:  2, cta: 0 initialized @(35902,0)
GPGPU-Sim PTX: 1400000 instructions simulated : ctaid=(6,11,0) tid=(15,5,0)
GPGPU-Sim uArch: cycles simulated: 36000  inst.: 1361760 (ipc=37.8) sim_rate=45392 (inst/sec) elapsed = 0:0:00:30 / Tue Apr 16 16:49:16 2019
GPGPU-Sim uArch: Shader 0 finished CTA #0 (36197,0), 5 CTAs running
GPGPU-Sim uArch: core:  0, cta: 0 initialized @(36198,0)
GPGPU-Sim uArch: Shader 7 finished CTA #0 (36333,0), 5 CTAs running
GPGPU-Sim uArch: core:  7, cta: 0 initialized @(36334,0)
GPGPU-Sim uArch: Shader 1 finished CTA #0 (36581,0), 5 CTAs running
GPGPU-Sim uArch: core:  1, cta: 0 initialized @(36582,0)
GPGPU-Sim uArch: Shader 11 finished CTA #0 (36589,0), 5 CTAs running
GPGPU-Sim uArch: core: 11, cta: 0 initialized @(36590,0)
GPGPU-Sim uArch: Shader 12 finished CTA #5 (36617,0), 5 CTAs running
GPGPU-Sim uArch: core: 12, cta: 5 initialized @(36618,0)
GPGPU-Sim uArch: Shader 9 finished CTA #1 (36716,0), 5 CTAs running
GPGPU-Sim uArch: core:  9, cta: 1 initialized @(36717,0)
GPGPU-Sim uArch: Shader 4 finished CTA #1 (36915,0), 5 CTAs running
GPGPU-Sim uArch: core:  4, cta: 1 initialized @(36916,0)
GPGPU-Sim uArch: cycles simulated: 37000  inst.: 1410816 (ipc=38.1) sim_rate=45510 (inst/sec) elapsed = 0:0:00:31 / Tue Apr 16 16:49:17 2019
GPGPU-Sim uArch: Shader 12 finished CTA #0 (37542,0), 5 CTAs running
GPGPU-Sim uArch: core: 12, cta: 0 initialized @(37543,0)
GPGPU-Sim uArch: Shader 13 finished CTA #0 (37665,0), 5 CTAs running
GPGPU-Sim uArch: core: 13, cta: 0 initialized @(37666,0)
GPGPU-Sim uArch: Shader 6 finished CTA #1 (37806,0), 5 CTAs running
GPGPU-Sim uArch: core:  6, cta: 1 initialized @(37807,0)
GPGPU-Sim uArch: cycles simulated: 38000  inst.: 1450688 (ipc=38.2) sim_rate=45334 (inst/sec) elapsed = 0:0:00:32 / Tue Apr 16 16:49:18 2019
GPGPU-Sim uArch: Shader 5 finished CTA #0 (38081,0), 5 CTAs running
GPGPU-Sim uArch: core:  5, cta: 0 initialized @(38082,0)
GPGPU-Sim PTX: 1500000 instructions simulated : ctaid=(10,7,0) tid=(15,11,0)
GPGPU-Sim uArch: Shader 3 finished CTA #0 (38577,0), 5 CTAs running
GPGPU-Sim uArch: core:  3, cta: 0 initialized @(38578,0)
GPGPU-Sim uArch: Shader 3 finished CTA #1 (38655,0), 5 CTAs running
GPGPU-Sim uArch: core:  3, cta: 1 initialized @(38656,0)
GPGPU-Sim uArch: Shader 13 finished CTA #1 (38888,0), 5 CTAs running
GPGPU-Sim uArch: core: 13, cta: 1 initialized @(38889,0)
GPGPU-Sim uArch: Shader 2 finished CTA #1 (38958,0), 5 CTAs running
GPGPU-Sim uArch: core:  2, cta: 1 initialized @(38959,0)
GPGPU-Sim uArch: cycles simulated: 39000  inst.: 1486304 (ipc=38.1) sim_rate=45039 (inst/sec) elapsed = 0:0:00:33 / Tue Apr 16 16:49:19 2019
GPGPU-Sim uArch: cycles simulated: 39500  inst.: 1507488 (ipc=38.2) sim_rate=44337 (inst/sec) elapsed = 0:0:00:34 / Tue Apr 16 16:49:20 2019
GPGPU-Sim uArch: Shader 14 finished CTA #0 (39606,0), 5 CTAs running
GPGPU-Sim uArch: core: 14, cta: 0 initialized @(39607,0)
GPGPU-Sim uArch: Shader 1 finished CTA #1 (39749,0), 5 CTAs running
GPGPU-Sim uArch: core:  1, cta: 1 initialized @(39750,0)
GPGPU-Sim uArch: Shader 10 finished CTA #0 (40126,0), 5 CTAs running
GPGPU-Sim uArch: core: 10, cta: 0 initialized @(40127,0)
GPGPU-Sim uArch: Shader 8 finished CTA #0 (40307,0), 5 CTAs running
GPGPU-Sim uArch: core:  8, cta: 0 initialized @(40308,0)
GPGPU-Sim uArch: Shader 14 finished CTA #1 (40312,0), 5 CTAs running
GPGPU-Sim uArch: core: 14, cta: 1 initialized @(40313,0)
GPGPU-Sim uArch: Shader 14 finished CTA #2 (40426,0), 5 CTAs running
GPGPU-Sim uArch: core: 14, cta: 2 initialized @(40427,0)
GPGPU-Sim uArch: cycles simulated: 40500  inst.: 1539680 (ipc=38.0) sim_rate=43990 (inst/sec) elapsed = 0:0:00:35 / Tue Apr 16 16:49:21 2019
GPGPU-Sim uArch: cycles simulated: 41500  inst.: 1549440 (ipc=37.3) sim_rate=43040 (inst/sec) elapsed = 0:0:00:36 / Tue Apr 16 16:49:22 2019
GPGPU-Sim uArch: Shader 3 finished CTA #2 (41630,0), 5 CTAs running
GPGPU-Sim uArch: core:  3, cta: 2 initialized @(41631,0)
GPGPU-Sim PTX: 1600000 instructions simulated : ctaid=(12,10,0) tid=(15,9,0)
GPGPU-Sim uArch: cycles simulated: 42500  inst.: 1581152 (ipc=37.2) sim_rate=42733 (inst/sec) elapsed = 0:0:00:37 / Tue Apr 16 16:49:23 2019
GPGPU-Sim uArch: Shader 10 finished CTA #1 (42752,0), 5 CTAs running
GPGPU-Sim uArch: core: 10, cta: 1 initialized @(42753,0)
GPGPU-Sim uArch: Shader 8 finished CTA #1 (42774,0), 5 CTAs running
GPGPU-Sim uArch: core:  8, cta: 1 initialized @(42775,0)
GPGPU-Sim uArch: Shader 12 finished CTA #1 (42782,0), 5 CTAs running
GPGPU-Sim uArch: core: 12, cta: 1 initialized @(42783,0)
GPGPU-Sim uArch: Shader 7 finished CTA #1 (42998,0), 5 CTAs running
GPGPU-Sim uArch: core:  7, cta: 1 initialized @(42999,0)
GPGPU-Sim uArch: Shader 5 finished CTA #1 (43219,0), 5 CTAs running
GPGPU-Sim uArch: core:  5, cta: 1 initialized @(43220,0)
GPGPU-Sim uArch: cycles simulated: 43500  inst.: 1623744 (ipc=37.3) sim_rate=42730 (inst/sec) elapsed = 0:0:00:38 / Tue Apr 16 16:49:24 2019
GPGPU-Sim uArch: Shader 14 finished CTA #3 (43540,0), 5 CTAs running
GPGPU-Sim uArch: core: 14, cta: 3 initialized @(43541,0)
GPGPU-Sim uArch: Shader 11 finished CTA #1 (43826,0), 5 CTAs running
GPGPU-Sim uArch: core: 11, cta: 1 initialized @(43827,0)
GPGPU-Sim uArch: Shader 5 finished CTA #2 (43924,0), 5 CTAs running
GPGPU-Sim uArch: core:  5, cta: 2 initialized @(43925,0)
GPGPU-Sim PTX: 1700000 instructions simulated : ctaid=(4,13,0) tid=(15,11,0)
GPGPU-Sim uArch: cycles simulated: 44000  inst.: 1652032 (ipc=37.5) sim_rate=42359 (inst/sec) elapsed = 0:0:00:39 / Tue Apr 16 16:49:25 2019
GPGPU-Sim uArch: Shader 11 finished CTA #2 (44103,0), 5 CTAs running
GPGPU-Sim uArch: core: 11, cta: 2 initialized @(44104,0)
GPGPU-Sim uArch: Shader 5 finished CTA #3 (44228,0), 5 CTAs running
GPGPU-Sim uArch: core:  5, cta: 3 initialized @(44229,0)
GPGPU-Sim uArch: Shader 11 finished CTA #3 (44230,0), 5 CTAs running
GPGPU-Sim uArch: core: 11, cta: 3 initialized @(44231,0)
GPGPU-Sim uArch: cycles simulated: 44500  inst.: 1673280 (ipc=37.6) sim_rate=41832 (inst/sec) elapsed = 0:0:00:40 / Tue Apr 16 16:49:26 2019
GPGPU-Sim uArch: Shader 11 finished CTA #4 (44523,0), 5 CTAs running
GPGPU-Sim uArch: core: 11, cta: 4 initialized @(44524,0)
GPGPU-Sim uArch: Shader 1 finished CTA #2 (44626,0), 5 CTAs running
GPGPU-Sim uArch: core:  1, cta: 2 initialized @(44627,0)
GPGPU-Sim uArch: Shader 1 finished CTA #3 (44675,0), 5 CTAs running
GPGPU-Sim uArch: core:  1, cta: 3 initialized @(44676,0)
GPGPU-Sim uArch: Shader 2 finished CTA #2 (44823,0), 5 CTAs running
GPGPU-Sim uArch: core:  2, cta: 2 initialized @(44824,0)
GPGPU-Sim uArch: cycles simulated: 45500  inst.: 1705792 (ipc=37.5) sim_rate=41604 (inst/sec) elapsed = 0:0:00:41 / Tue Apr 16 16:49:27 2019
GPGPU-Sim uArch: Shader 0 finished CTA #1 (45536,0), 5 CTAs running
GPGPU-Sim uArch: core:  0, cta: 1 initialized @(45537,0)
GPGPU-Sim uArch: Shader 9 finished CTA #2 (45694,0), 5 CTAs running
GPGPU-Sim uArch: core:  9, cta: 2 initialized @(45695,0)
GPGPU-Sim uArch: Shader 7 finished CTA #2 (45731,0), 5 CTAs running
GPGPU-Sim uArch: core:  7, cta: 2 initialized @(45732,0)
GPGPU-Sim uArch: Shader 3 finished CTA #3 (45805,0), 5 CTAs running
GPGPU-Sim uArch: core:  3, cta: 3 initialized @(45806,0)
GPGPU-Sim uArch: Shader 1 finished CTA #4 (46018,0), 5 CTAs running
GPGPU-Sim uArch: core:  1, cta: 4 initialized @(46019,0)
GPGPU-Sim uArch: Shader 6 finished CTA #2 (46055,0), 5 CTAs running
GPGPU-Sim uArch: core:  6, cta: 2 initialized @(46056,0)
GPGPU-Sim PTX: 1800000 instructions simulated : ctaid=(1,14,0) tid=(15,9,0)
GPGPU-Sim uArch: Shader 13 finished CTA #2 (46148,0), 5 CTAs running
GPGPU-Sim uArch: core: 13, cta: 2 initialized @(46149,0)
GPGPU-Sim uArch: cycles simulated: 46500  inst.: 1765472 (ipc=38.0) sim_rate=42035 (inst/sec) elapsed = 0:0:00:42 / Tue Apr 16 16:49:28 2019
GPGPU-Sim uArch: Shader 14 finished CTA #4 (46801,0), 5 CTAs running
GPGPU-Sim uArch: core: 14, cta: 4 initialized @(46802,0)
GPGPU-Sim uArch: Shader 5 finished CTA #4 (47046,0), 5 CTAs running
GPGPU-Sim uArch: core:  5, cta: 4 initialized @(47047,0)
GPGPU-Sim uArch: Shader 8 finished CTA #2 (47269,0), 5 CTAs running
GPGPU-Sim uArch: core:  8, cta: 2 initialized @(47270,0)
GPGPU-Sim uArch: Shader 11 finished CTA #5 (47405,0), 5 CTAs running
GPGPU-Sim uArch: core: 11, cta: 5 initialized @(47406,0)
GPGPU-Sim uArch: Shader 6 finished CTA #3 (47625,0), 5 CTAs running
GPGPU-Sim uArch: core:  6, cta: 3 initialized @(47626,0)
GPGPU-Sim uArch: Shader 4 finished CTA #2 (47751,0), 5 CTAs running
GPGPU-Sim uArch: core:  4, cta: 2 initialized @(47752,0)
GPGPU-Sim uArch: Shader 3 finished CTA #4 (47827,0), 5 CTAs running
GPGPU-Sim uArch: core:  3, cta: 4 initialized @(47828,0)
GPGPU-Sim uArch: cycles simulated: 48000  inst.: 1819712 (ipc=37.9) sim_rate=42318 (inst/sec) elapsed = 0:0:00:43 / Tue Apr 16 16:49:29 2019
GPGPU-Sim uArch: Shader 2 finished CTA #3 (48135,0), 5 CTAs running
GPGPU-Sim uArch: core:  2, cta: 3 initialized @(48136,0)
GPGPU-Sim uArch: Shader 10 finished CTA #2 (48503,0), 5 CTAs running
GPGPU-Sim uArch: core: 10, cta: 2 initialized @(48504,0)
GPGPU-Sim PTX: 1900000 instructions simulated : ctaid=(12,13,0) tid=(15,5,0)
GPGPU-Sim uArch: cycles simulated: 49000  inst.: 1845024 (ipc=37.7) sim_rate=41932 (inst/sec) elapsed = 0:0:00:44 / Tue Apr 16 16:49:30 2019
GPGPU-Sim uArch: Shader 1 finished CTA #5 (49020,0), 5 CTAs running
GPGPU-Sim uArch: core:  1, cta: 5 initialized @(49021,0)
GPGPU-Sim uArch: Shader 13 finished CTA #3 (49435,0), 5 CTAs running
GPGPU-Sim uArch: core: 13, cta: 3 initialized @(49436,0)
GPGPU-Sim uArch: Shader 14 finished CTA #5 (49526,0), 5 CTAs running
GPGPU-Sim uArch: core: 14, cta: 5 initialized @(49527,0)
GPGPU-Sim uArch: Shader 8 finished CTA #3 (49774,0), 5 CTAs running
GPGPU-Sim uArch: core:  8, cta: 3 initialized @(49775,0)
GPGPU-Sim uArch: Shader 0 finished CTA #2 (49889,0), 5 CTAs running
GPGPU-Sim uArch: core:  0, cta: 2 initialized @(49890,0)
GPGPU-Sim uArch: Shader 3 finished CTA #5 (50028,0), 5 CTAs running
GPGPU-Sim uArch: core:  3, cta: 5 initialized @(50029,0)
GPGPU-Sim uArch: Shader 5 finished CTA #5 (50183,0), 5 CTAs running
GPGPU-Sim uArch: core:  5, cta: 5 initialized @(50184,0)
GPGPU-Sim uArch: Shader 6 finished CTA #4 (50185,0), 5 CTAs running
GPGPU-Sim uArch: core:  6, cta: 4 initialized @(50186,0)
GPGPU-Sim uArch: Shader 2 finished CTA #4 (50338,0), 5 CTAs running
GPGPU-Sim uArch: core:  2, cta: 4 initialized @(50339,0)
GPGPU-Sim uArch: Shader 7 finished CTA #3 (50377,0), 5 CTAs running
GPGPU-Sim uArch: core:  7, cta: 3 initialized @(50378,0)
GPGPU-Sim uArch: Shader 10 finished CTA #3 (50490,0), 5 CTAs running
GPGPU-Sim uArch: core: 10, cta: 3 initialized @(50491,0)
GPGPU-Sim uArch: cycles simulated: 50500  inst.: 1931776 (ipc=38.3) sim_rate=42928 (inst/sec) elapsed = 0:0:00:45 / Tue Apr 16 16:49:31 2019
GPGPU-Sim PTX: 2000000 instructions simulated : ctaid=(13,14,0) tid=(15,5,0)
GPGPU-Sim uArch: Shader 4 finished CTA #3 (50823,0), 5 CTAs running
GPGPU-Sim uArch: core:  4, cta: 3 initialized @(50824,0)
GPGPU-Sim uArch: Shader 9 finished CTA #3 (50983,0), 5 CTAs running
GPGPU-Sim uArch: core:  9, cta: 3 initialized @(50984,0)
GPGPU-Sim uArch: Shader 13 finished CTA #4 (51219,0), 5 CTAs running
GPGPU-Sim uArch: core: 13, cta: 4 initialized @(51220,0)
GPGPU-Sim uArch: Shader 9 finished CTA #4 (51325,0), 5 CTAs running
GPGPU-Sim uArch: core:  9, cta: 4 initialized @(51326,0)
GPGPU-Sim uArch: Shader 1 finished CTA #0 (51485,0), 5 CTAs running
GPGPU-Sim uArch: core:  1, cta: 0 initialized @(51486,0)
GPGPU-Sim uArch: cycles simulated: 51500  inst.: 1977632 (ipc=38.4) sim_rate=42992 (inst/sec) elapsed = 0:0:00:46 / Tue Apr 16 16:49:32 2019
GPGPU-Sim uArch: Shader 10 finished CTA #4 (51518,0), 5 CTAs running
GPGPU-Sim uArch: core: 10, cta: 4 initialized @(51519,0)
GPGPU-Sim uArch: Shader 12 finished CTA #2 (51638,0), 5 CTAs running
GPGPU-Sim uArch: core: 12, cta: 2 initialized @(51639,0)
GPGPU-Sim uArch: Shader 11 finished CTA #0 (51743,0), 5 CTAs running
GPGPU-Sim uArch: core: 11, cta: 0 initialized @(51744,0)
GPGPU-Sim uArch: Shader 3 finished CTA #0 (51806,0), 5 CTAs running
GPGPU-Sim uArch: core:  3, cta: 0 initialized @(51807,0)
GPGPU-Sim uArch: cycles simulated: 52500  inst.: 2015360 (ipc=38.4) sim_rate=42880 (inst/sec) elapsed = 0:0:00:47 / Tue Apr 16 16:49:33 2019
GPGPU-Sim uArch: Shader 2 finished CTA #5 (52524,0), 5 CTAs running
GPGPU-Sim uArch: core:  2, cta: 5 initialized @(52525,0)
GPGPU-Sim uArch: Shader 8 finished CTA #4 (52530,0), 5 CTAs running
GPGPU-Sim uArch: core:  8, cta: 4 initialized @(52531,0)
GPGPU-Sim uArch: Shader 13 finished CTA #5 (52844,0), 5 CTAs running
GPGPU-Sim uArch: core: 13, cta: 5 initialized @(52845,0)
GPGPU-Sim PTX: 2100000 instructions simulated : ctaid=(3,12,0) tid=(15,11,0)
GPGPU-Sim uArch: Shader 6 finished CTA #5 (53220,0), 5 CTAs running
GPGPU-Sim uArch: core:  6, cta: 5 initialized @(53221,0)
GPGPU-Sim uArch: Shader 14 finished CTA #0 (53279,0), 5 CTAs running
GPGPU-Sim uArch: core: 14, cta: 0 initialized @(53280,0)
GPGPU-Sim uArch: Shader 12 finished CTA #3 (53381,0), 5 CTAs running
GPGPU-Sim uArch: core: 12, cta: 3 initialized @(53382,0)
GPGPU-Sim uArch: Shader 9 finished CTA #5 (53428,0), 5 CTAs running
GPGPU-Sim uArch: core:  9, cta: 5 initialized @(53429,0)
GPGPU-Sim uArch: Shader 12 finished CTA #4 (53643,0), 5 CTAs running
GPGPU-Sim uArch: core: 12, cta: 4 initialized @(53644,0)
GPGPU-Sim uArch: Shader 8 finished CTA #5 (53709,0), 5 CTAs running
GPGPU-Sim uArch: core:  8, cta: 5 initialized @(53710,0)
GPGPU-Sim uArch: cycles simulated: 54000  inst.: 2083744 (ipc=38.6) sim_rate=43411 (inst/sec) elapsed = 0:0:00:48 / Tue Apr 16 16:49:34 2019
GPGPU-Sim uArch: Shader 2 finished CTA #0 (54600,0), 5 CTAs running
GPGPU-Sim uArch: core:  2, cta: 0 initialized @(54601,0)
GPGPU-Sim uArch: Shader 9 finished CTA #0 (54800,0), 5 CTAs running
GPGPU-Sim uArch: core:  9, cta: 0 initialized @(54801,0)
GPGPU-Sim uArch: Shader 14 finished CTA #1 (54942,0), 5 CTAs running
GPGPU-Sim uArch: core: 14, cta: 1 initialized @(54943,0)
GPGPU-Sim uArch: cycles simulated: 55000  inst.: 2113728 (ipc=38.4) sim_rate=43137 (inst/sec) elapsed = 0:0:00:49 / Tue Apr 16 16:49:35 2019
GPGPU-Sim uArch: Shader 6 finished CTA #0 (55821,0), 5 CTAs running
GPGPU-Sim uArch: core:  6, cta: 0 initialized @(55822,0)
GPGPU-Sim PTX: 2200000 instructions simulated : ctaid=(14,11,0) tid=(15,7,0)
GPGPU-Sim uArch: Shader 0 finished CTA #3 (56114,0), 5 CTAs running
GPGPU-Sim uArch: core:  0, cta: 3 initialized @(56115,0)
GPGPU-Sim uArch: Shader 4 finished CTA #4 (56148,0), 5 CTAs running
GPGPU-Sim uArch: core:  4, cta: 4 initialized @(56149,0)
GPGPU-Sim uArch: Shader 5 finished CTA #0 (56207,0), 5 CTAs running
GPGPU-Sim uArch: core:  5, cta: 0 initialized @(56208,0)
GPGPU-Sim uArch: Shader 7 finished CTA #4 (56350,0), 5 CTAs running
GPGPU-Sim uArch: core:  7, cta: 4 initialized @(56351,0)
GPGPU-Sim uArch: cycles simulated: 56500  inst.: 2155552 (ipc=38.2) sim_rate=43111 (inst/sec) elapsed = 0:0:00:50 / Tue Apr 16 16:49:36 2019
GPGPU-Sim uArch: Shader 12 finished CTA #5 (56632,0), 5 CTAs running
GPGPU-Sim uArch: core: 12, cta: 5 initialized @(56633,0)
GPGPU-Sim uArch: Shader 11 finished CTA #1 (56665,0), 5 CTAs running
GPGPU-Sim uArch: core: 11, cta: 1 initialized @(56666,0)
GPGPU-Sim uArch: Shader 0 finished CTA #4 (56737,0), 5 CTAs running
GPGPU-Sim uArch: core:  0, cta: 4 initialized @(56738,0)
GPGPU-Sim uArch: Shader 9 finished CTA #1 (56950,0), 5 CTAs running
GPGPU-Sim uArch: core:  9, cta: 1 initialized @(56951,0)
GPGPU-Sim uArch: Shader 10 finished CTA #5 (56967,0), 5 CTAs running
GPGPU-Sim uArch: core: 10, cta: 5 initialized @(56968,0)
GPGPU-Sim uArch: cycles simulated: 57000  inst.: 2194272 (ipc=38.5) sim_rate=43024 (inst/sec) elapsed = 0:0:00:51 / Tue Apr 16 16:49:37 2019
GPGPU-Sim uArch: Shader 4 finished CTA #5 (57034,0), 5 CTAs running
GPGPU-Sim uArch: core:  4, cta: 5 initialized @(57035,0)
GPGPU-Sim uArch: Shader 4 finished CTA #0 (57416,0), 5 CTAs running
GPGPU-Sim uArch: core:  4, cta: 0 initialized @(57417,0)
GPGPU-Sim uArch: Shader 12 finished CTA #0 (57438,0), 5 CTAs running
GPGPU-Sim uArch: core: 12, cta: 0 initialized @(57439,0)
GPGPU-Sim PTX: 2300000 instructions simulated : ctaid=(10,16,0) tid=(15,1,0)
GPGPU-Sim uArch: Shader 0 finished CTA #0 (57808,0), 5 CTAs running
GPGPU-Sim uArch: core:  0, cta: 0 initialized @(57809,0)
GPGPU-Sim uArch: Shader 1 finished CTA #1 (57989,0), 5 CTAs running
GPGPU-Sim uArch: core:  1, cta: 1 initialized @(57990,0)
GPGPU-Sim uArch: cycles simulated: 58000  inst.: 2242272 (ipc=38.7) sim_rate=43120 (inst/sec) elapsed = 0:0:00:52 / Tue Apr 16 16:49:38 2019
GPGPU-Sim uArch: Shader 0 finished CTA #5 (58137,0), 5 CTAs running
GPGPU-Sim uArch: core:  0, cta: 5 initialized @(58138,0)
GPGPU-Sim uArch: Shader 13 finished CTA #0 (58289,0), 5 CTAs running
GPGPU-Sim uArch: core: 13, cta: 0 initialized @(58290,0)
GPGPU-Sim uArch: Shader 3 finished CTA #1 (58417,0), 5 CTAs running
GPGPU-Sim uArch: core:  3, cta: 1 initialized @(58418,0)
GPGPU-Sim uArch: Shader 6 finished CTA #1 (58734,0), 5 CTAs running
GPGPU-Sim uArch: core:  6, cta: 1 initialized @(58735,0)
GPGPU-Sim uArch: Shader 4 finished CTA #1 (58741,0), 5 CTAs running
GPGPU-Sim uArch: core:  4, cta: 1 initialized @(58742,0)
GPGPU-Sim uArch: Shader 7 finished CTA #5 (58745,0), 5 CTAs running
GPGPU-Sim uArch: core:  7, cta: 5 initialized @(58746,0)
GPGPU-Sim uArch: Shader 5 finished CTA #1 (58924,0), 5 CTAs running
GPGPU-Sim uArch: core:  5, cta: 1 initialized @(58925,0)
GPGPU-Sim uArch: cycles simulated: 59000  inst.: 2284896 (ipc=38.7) sim_rate=43111 (inst/sec) elapsed = 0:0:00:53 / Tue Apr 16 16:49:39 2019
GPGPU-Sim uArch: Shader 7 finished CTA #0 (59097,0), 5 CTAs running
GPGPU-Sim uArch: core:  7, cta: 0 initialized @(59098,0)
GPGPU-Sim uArch: Shader 14 finished CTA #2 (59195,0), 5 CTAs running
GPGPU-Sim uArch: core: 14, cta: 2 initialized @(59196,0)
GPGPU-Sim uArch: cycles simulated: 59500  inst.: 2317984 (ipc=39.0) sim_rate=42925 (inst/sec) elapsed = 0:0:00:54 / Tue Apr 16 16:49:40 2019
GPGPU-Sim uArch: Shader 2 finished CTA #1 (59565,0), 5 CTAs running
GPGPU-Sim uArch: core:  2, cta: 1 initialized @(59566,0)
GPGPU-Sim uArch: Shader 8 finished CTA #0 (59645,0), 5 CTAs running
GPGPU-Sim uArch: core:  8, cta: 0 initialized @(59646,0)
GPGPU-Sim PTX: 2400000 instructions simulated : ctaid=(5,18,0) tid=(15,7,0)
GPGPU-Sim uArch: Shader 13 finished CTA #1 (59895,0), 5 CTAs running
GPGPU-Sim uArch: core: 13, cta: 1 initialized @(59896,0)
GPGPU-Sim uArch: Shader 9 finished CTA #2 (60134,0), 5 CTAs running
GPGPU-Sim uArch: core:  9, cta: 2 initialized @(60135,0)
GPGPU-Sim uArch: cycles simulated: 60500  inst.: 2352896 (ipc=38.9) sim_rate=42779 (inst/sec) elapsed = 0:0:00:55 / Tue Apr 16 16:49:41 2019
GPGPU-Sim uArch: Shader 0 finished CTA #1 (60716,0), 5 CTAs running
GPGPU-Sim uArch: core:  0, cta: 1 initialized @(60717,0)
GPGPU-Sim uArch: Shader 5 finished CTA #2 (60988,0), 5 CTAs running
GPGPU-Sim uArch: core:  5, cta: 2 initialized @(60989,0)
GPGPU-Sim uArch: Shader 12 finished CTA #1 (61316,0), 5 CTAs running
GPGPU-Sim uArch: core: 12, cta: 1 initialized @(61317,0)
GPGPU-Sim uArch: Shader 6 finished CTA #2 (61450,0), 5 CTAs running
GPGPU-Sim uArch: core:  6, cta: 2 initialized @(61451,0)
GPGPU-Sim uArch: cycles simulated: 61500  inst.: 2395680 (ipc=39.0) sim_rate=42780 (inst/sec) elapsed = 0:0:00:56 / Tue Apr 16 16:49:42 2019
GPGPU-Sim uArch: Shader 2 finished CTA #2 (61863,0), 5 CTAs running
GPGPU-Sim uArch: core:  2, cta: 2 initialized @(61864,0)
GPGPU-Sim uArch: Shader 10 finished CTA #0 (62018,0), 5 CTAs running
GPGPU-Sim uArch: core: 10, cta: 0 initialized @(62019,0)
GPGPU-Sim uArch: Shader 13 finished CTA #2 (62246,0), 5 CTAs running
GPGPU-Sim uArch: core: 13, cta: 2 initialized @(62247,0)
GPGPU-Sim PTX: 2500000 instructions simulated : ctaid=(14,18,0) tid=(15,13,0)
GPGPU-Sim uArch: Shader 8 finished CTA #1 (62397,0), 5 CTAs running
GPGPU-Sim uArch: core:  8, cta: 1 initialized @(62398,0)
GPGPU-Sim uArch: Shader 9 finished CTA #3 (62457,0), 5 CTAs running
GPGPU-Sim uArch: core:  9, cta: 3 initialized @(62458,0)
GPGPU-Sim uArch: Shader 11 finished CTA #2 (62499,0), 5 CTAs running
GPGPU-Sim uArch: core: 11, cta: 2 initialized @(62500,0)
GPGPU-Sim uArch: Shader 7 finished CTA #1 (62562,0), 5 CTAs running
GPGPU-Sim uArch: core:  7, cta: 1 initialized @(62563,0)
GPGPU-Sim uArch: Shader 4 finished CTA #2 (62613,0), 5 CTAs running
GPGPU-Sim uArch: core:  4, cta: 2 initialized @(62614,0)
GPGPU-Sim uArch: cycles simulated: 63000  inst.: 2474816 (ipc=39.3) sim_rate=43417 (inst/sec) elapsed = 0:0:00:57 / Tue Apr 16 16:49:43 2019
GPGPU-Sim uArch: Shader 14 finished CTA #3 (63274,0), 5 CTAs running
GPGPU-Sim uArch: core: 14, cta: 3 initialized @(63275,0)
GPGPU-Sim uArch: Shader 12 finished CTA #2 (63757,0), 5 CTAs running
GPGPU-Sim uArch: core: 12, cta: 2 initialized @(63758,0)
GPGPU-Sim uArch: Shader 6 finished CTA #3 (63777,0), 5 CTAs running
GPGPU-Sim uArch: core:  6, cta: 3 initialized @(63778,0)
GPGPU-Sim uArch: Shader 3 finished CTA #2 (63816,0), 5 CTAs running
GPGPU-Sim uArch: core:  3, cta: 2 initialized @(63817,0)
GPGPU-Sim PTX: 2600000 instructions simulated : ctaid=(6,16,0) tid=(15,11,0)
GPGPU-Sim uArch: cycles simulated: 64000  inst.: 2528960 (ipc=39.5) sim_rate=43602 (inst/sec) elapsed = 0:0:00:58 / Tue Apr 16 16:49:44 2019
GPGPU-Sim uArch: Shader 9 finished CTA #4 (64215,0), 5 CTAs running
GPGPU-Sim uArch: core:  9, cta: 4 initialized @(64216,0)
GPGPU-Sim uArch: Shader 5 finished CTA #3 (64236,0), 5 CTAs running
GPGPU-Sim uArch: core:  5, cta: 3 initialized @(64237,0)
GPGPU-Sim uArch: Shader 4 finished CTA #3 (64284,0), 5 CTAs running
GPGPU-Sim uArch: core:  4, cta: 3 initialized @(64285,0)
GPGPU-Sim uArch: Shader 0 finished CTA #2 (64424,0), 5 CTAs running
GPGPU-Sim uArch: core:  0, cta: 2 initialized @(64425,0)
GPGPU-Sim uArch: Shader 7 finished CTA #2 (64695,0), 5 CTAs running
GPGPU-Sim uArch: core:  7, cta: 2 initialized @(64696,0)
GPGPU-Sim uArch: Shader 2 finished CTA #3 (64744,0), 5 CTAs running
GPGPU-Sim uArch: core:  2, cta: 3 initialized @(64745,0)
GPGPU-Sim uArch: Shader 4 finished CTA #4 (64752,0), 5 CTAs running
GPGPU-Sim uArch: core:  4, cta: 4 initialized @(64753,0)
GPGPU-Sim uArch: Shader 8 finished CTA #2 (64816,0), 5 CTAs running
GPGPU-Sim uArch: core:  8, cta: 2 initialized @(64817,0)
GPGPU-Sim uArch: cycles simulated: 65000  inst.: 2578688 (ipc=39.7) sim_rate=43706 (inst/sec) elapsed = 0:0:00:59 / Tue Apr 16 16:49:45 2019
GPGPU-Sim uArch: Shader 12 finished CTA #3 (65031,0), 5 CTAs running
GPGPU-Sim uArch: core: 12, cta: 3 initialized @(65032,0)
GPGPU-Sim uArch: Shader 1 finished CTA #2 (65198,0), 5 CTAs running
GPGPU-Sim uArch: core:  1, cta: 2 initialized @(65199,0)
GPGPU-Sim uArch: Shader 13 finished CTA #3 (65212,0), 5 CTAs running
GPGPU-Sim uArch: core: 13, cta: 3 initialized @(65213,0)
GPGPU-Sim uArch: Shader 10 finished CTA #1 (65319,0), 5 CTAs running
GPGPU-Sim uArch: core: 10, cta: 1 initialized @(65320,0)
GPGPU-Sim uArch: Shader 5 finished CTA #4 (65356,0), 5 CTAs running
GPGPU-Sim uArch: core:  5, cta: 4 initialized @(65357,0)
GPGPU-Sim uArch: Shader 11 finished CTA #3 (65392,0), 5 CTAs running
GPGPU-Sim uArch: core: 11, cta: 3 initialized @(65393,0)
GPGPU-Sim uArch: Shader 14 finished CTA #4 (65399,0), 5 CTAs running
GPGPU-Sim uArch: core: 14, cta: 4 initialized @(65400,0)
GPGPU-Sim uArch: Shader 14 finished CTA #5 (65743,0), 5 CTAs running
GPGPU-Sim uArch: core: 14, cta: 5 initialized @(65744,0)
GPGPU-Sim uArch: cycles simulated: 66000  inst.: 2619776 (ipc=39.7) sim_rate=43662 (inst/sec) elapsed = 0:0:01:00 / Tue Apr 16 16:49:46 2019
GPGPU-Sim PTX: 2700000 instructions simulated : ctaid=(9,15,0) tid=(15,15,0)
GPGPU-Sim uArch: cycles simulated: 66500  inst.: 2624224 (ipc=39.5) sim_rate=43020 (inst/sec) elapsed = 0:0:01:01 / Tue Apr 16 16:49:47 2019
GPGPU-Sim uArch: Shader 13 finished CTA #4 (67070,0), 5 CTAs running
GPGPU-Sim uArch: core: 13, cta: 4 initialized @(67071,0)
GPGPU-Sim uArch: cycles simulated: 67500  inst.: 2655264 (ipc=39.3) sim_rate=42826 (inst/sec) elapsed = 0:0:01:02 / Tue Apr 16 16:49:48 2019
GPGPU-Sim uArch: Shader 9 finished CTA #5 (67534,0), 5 CTAs running
GPGPU-Sim uArch: core:  9, cta: 5 initialized @(67535,0)
GPGPU-Sim uArch: Shader 2 finished CTA #4 (67579,0), 5 CTAs running
GPGPU-Sim uArch: core:  2, cta: 4 initialized @(67580,0)
GPGPU-Sim uArch: Shader 1 finished CTA #3 (67656,0), 5 CTAs running
GPGPU-Sim uArch: core:  1, cta: 3 initialized @(67657,0)
GPGPU-Sim uArch: Shader 6 finished CTA #4 (67711,0), 5 CTAs running
GPGPU-Sim uArch: core:  6, cta: 4 initialized @(67712,0)
GPGPU-Sim uArch: Shader 3 finished CTA #3 (67954,0), 5 CTAs running
GPGPU-Sim uArch: core:  3, cta: 3 initialized @(67955,0)
GPGPU-Sim uArch: Shader 12 finished CTA #4 (67963,0), 5 CTAs running
GPGPU-Sim uArch: core: 12, cta: 4 initialized @(67964,0)
GPGPU-Sim uArch: Shader 11 finished CTA #4 (68295,0), 5 CTAs running
GPGPU-Sim uArch: core: 11, cta: 4 initialized @(68296,0)
GPGPU-Sim uArch: Shader 4 finished CTA #5 (68458,0), 5 CTAs running
GPGPU-Sim uArch: core:  4, cta: 5 initialized @(68459,0)
GPGPU-Sim uArch: cycles simulated: 68500  inst.: 2711872 (ipc=39.6) sim_rate=43045 (inst/sec) elapsed = 0:0:01:03 / Tue Apr 16 16:49:49 2019
GPGPU-Sim uArch: Shader 10 finished CTA #2 (68651,0), 5 CTAs running
GPGPU-Sim uArch: core: 10, cta: 2 initialized @(68652,0)
GPGPU-Sim PTX: 2800000 instructions simulated : ctaid=(11,20,0) tid=(15,1,0)
GPGPU-Sim uArch: Shader 8 finished CTA #3 (68778,0), 5 CTAs running
GPGPU-Sim uArch: core:  8, cta: 3 initialized @(68779,0)
GPGPU-Sim uArch: Shader 7 finished CTA #3 (68853,0), 5 CTAs running
GPGPU-Sim uArch: core:  7, cta: 3 initialized @(68854,0)
GPGPU-Sim uArch: cycles simulated: 69000  inst.: 2733376 (ipc=39.6) sim_rate=42709 (inst/sec) elapsed = 0:0:01:04 / Tue Apr 16 16:49:50 2019
GPGPU-Sim uArch: Shader 1 finished CTA #4 (69063,0), 5 CTAs running
GPGPU-Sim uArch: core:  1, cta: 4 initialized @(69064,0)
GPGPU-Sim uArch: Shader 11 finished CTA #5 (69110,0), 5 CTAs running
GPGPU-Sim uArch: core: 11, cta: 5 initialized @(69111,0)
GPGPU-Sim uArch: Shader 10 finished CTA #3 (69127,0), 5 CTAs running
GPGPU-Sim uArch: core: 10, cta: 3 initialized @(69128,0)
GPGPU-Sim uArch: Shader 10 finished CTA #4 (69311,0), 5 CTAs running
GPGPU-Sim uArch: core: 10, cta: 4 initialized @(69312,0)
GPGPU-Sim uArch: Shader 11 finished CTA #0 (69340,0), 5 CTAs running
GPGPU-Sim uArch: core: 11, cta: 0 initialized @(69341,0)
GPGPU-Sim uArch: Shader 9 finished CTA #0 (69472,0), 5 CTAs running
GPGPU-Sim uArch: core:  9, cta: 0 initialized @(69473,0)
GPGPU-Sim uArch: Shader 0 finished CTA #3 (69587,0), 5 CTAs running
GPGPU-Sim uArch: core:  0, cta: 3 initialized @(69588,0)
GPGPU-Sim uArch: Shader 1 finished CTA #5 (69658,0), 5 CTAs running
GPGPU-Sim uArch: core:  1, cta: 5 initialized @(69659,0)
GPGPU-Sim uArch: Shader 1 finished CTA #0 (70375,0), 5 CTAs running
GPGPU-Sim uArch: core:  1, cta: 0 initialized @(70376,0)
GPGPU-Sim uArch: cycles simulated: 70500  inst.: 2804992 (ipc=39.8) sim_rate=43153 (inst/sec) elapsed = 0:0:01:05 / Tue Apr 16 16:49:51 2019
GPGPU-Sim PTX: 2900000 instructions simulated : ctaid=(8,20,0) tid=(15,9,0)
GPGPU-Sim uArch: Shader 14 finished CTA #0 (70781,0), 5 CTAs running
GPGPU-Sim uArch: core: 14, cta: 0 initialized @(70782,0)
GPGPU-Sim uArch: Shader 13 finished CTA #5 (70813,0), 5 CTAs running
GPGPU-Sim uArch: core: 13, cta: 5 initialized @(70814,0)
GPGPU-Sim uArch: Shader 8 finished CTA #4 (70834,0), 5 CTAs running
GPGPU-Sim uArch: core:  8, cta: 4 initialized @(70835,0)
GPGPU-Sim uArch: Shader 3 finished CTA #4 (70872,0), 5 CTAs running
GPGPU-Sim uArch: core:  3, cta: 4 initialized @(70873,0)
GPGPU-Sim uArch: cycles simulated: 71000  inst.: 2837600 (ipc=40.0) sim_rate=42993 (inst/sec) elapsed = 0:0:01:06 / Tue Apr 16 16:49:52 2019
GPGPU-Sim uArch: Shader 7 finished CTA #4 (71438,0), 5 CTAs running
GPGPU-Sim uArch: core:  7, cta: 4 initialized @(71439,0)
GPGPU-Sim uArch: Shader 3 finished CTA #0 (71761,0), 5 CTAs running
GPGPU-Sim uArch: core:  3, cta: 0 initialized @(71762,0)
GPGPU-Sim uArch: Shader 3 finished CTA #5 (71777,0), 5 CTAs running
GPGPU-Sim uArch: core:  3, cta: 5 initialized @(71778,0)
GPGPU-Sim uArch: cycles simulated: 72000  inst.: 2876768 (ipc=40.0) sim_rate=42936 (inst/sec) elapsed = 0:0:01:07 / Tue Apr 16 16:49:53 2019
GPGPU-Sim uArch: Shader 5 finished CTA #5 (72244,0), 5 CTAs running
GPGPU-Sim uArch: core:  5, cta: 5 initialized @(72245,0)
GPGPU-Sim uArch: Shader 6 finished CTA #5 (72408,0), 5 CTAs running
GPGPU-Sim uArch: core:  6, cta: 5 initialized @(72409,0)
GPGPU-Sim uArch: Shader 1 finished CTA #1 (72739,0), 5 CTAs running
GPGPU-Sim uArch: core:  1, cta: 1 initialized @(72740,0)
GPGPU-Sim uArch: Shader 11 finished CTA #1 (72753,0), 5 CTAs running
GPGPU-Sim uArch: core: 11, cta: 1 initialized @(72754,0)
GPGPU-Sim uArch: cycles simulated: 73000  inst.: 2905472 (ipc=39.8) sim_rate=42727 (inst/sec) elapsed = 0:0:01:08 / Tue Apr 16 16:49:54 2019
GPGPU-Sim uArch: Shader 2 finished CTA #5 (73160,0), 5 CTAs running
GPGPU-Sim uArch: core:  2, cta: 5 initialized @(73161,0)
GPGPU-Sim PTX: 3000000 instructions simulated : ctaid=(4,21,0) tid=(15,7,0)
GPGPU-Sim uArch: Shader 12 finished CTA #5 (73298,0), 5 CTAs running
GPGPU-Sim uArch: core: 12, cta: 5 initialized @(73299,0)
GPGPU-Sim uArch: Shader 14 finished CTA #1 (73308,0), 5 CTAs running
GPGPU-Sim uArch: core: 14, cta: 1 initialized @(73309,0)
GPGPU-Sim uArch: Shader 10 finished CTA #5 (73471,0), 5 CTAs running
GPGPU-Sim uArch: core: 10, cta: 5 initialized @(73472,0)
GPGPU-Sim uArch: Shader 0 finished CTA #4 (73603,0), 5 CTAs running
GPGPU-Sim uArch: core:  0, cta: 4 initialized @(73604,0)
GPGPU-Sim uArch: cycles simulated: 74000  inst.: 2966912 (ipc=40.1) sim_rate=42998 (inst/sec) elapsed = 0:0:01:09 / Tue Apr 16 16:49:55 2019
GPGPU-Sim uArch: Shader 9 finished CTA #1 (74154,0), 5 CTAs running
GPGPU-Sim uArch: core:  9, cta: 1 initialized @(74155,0)
GPGPU-Sim uArch: Shader 11 finished CTA #2 (74385,0), 5 CTAs running
GPGPU-Sim uArch: core: 11, cta: 2 initialized @(74386,0)
GPGPU-Sim uArch: Shader 13 finished CTA #0 (74422,0), 5 CTAs running
GPGPU-Sim uArch: core: 13, cta: 0 initialized @(74423,0)
GPGPU-Sim uArch: Shader 5 finished CTA #0 (74491,0), 5 CTAs running
GPGPU-Sim uArch: core:  5, cta: 0 initialized @(74492,0)
GPGPU-Sim uArch: cycles simulated: 74500  inst.: 2998624 (ipc=40.2) sim_rate=42837 (inst/sec) elapsed = 0:0:01:10 / Tue Apr 16 16:49:56 2019
GPGPU-Sim uArch: Shader 4 finished CTA #0 (74557,0), 5 CTAs running
GPGPU-Sim uArch: core:  4, cta: 0 initialized @(74558,0)
GPGPU-Sim PTX: 3100000 instructions simulated : ctaid=(3,21,0) tid=(15,9,0)
GPGPU-Sim uArch: Shader 8 finished CTA #5 (74851,0), 5 CTAs running
GPGPU-Sim uArch: core:  8, cta: 5 initialized @(74852,0)
GPGPU-Sim uArch: cycles simulated: 75000  inst.: 3026624 (ipc=40.4) sim_rate=42628 (inst/sec) elapsed = 0:0:01:11 / Tue Apr 16 16:49:57 2019
GPGPU-Sim uArch: Shader 7 finished CTA #5 (75042,0), 5 CTAs running
GPGPU-Sim uArch: core:  7, cta: 5 initialized @(75043,0)
GPGPU-Sim uArch: Shader 2 finished CTA #0 (75211,0), 5 CTAs running
GPGPU-Sim uArch: core:  2, cta: 0 initialized @(75212,0)
GPGPU-Sim uArch: Shader 3 finished CTA #1 (75408,0), 5 CTAs running
GPGPU-Sim uArch: core:  3, cta: 1 initialized @(75409,0)
GPGPU-Sim uArch: Shader 13 finished CTA #1 (75691,0), 5 CTAs running
GPGPU-Sim uArch: core: 13, cta: 1 initialized @(75692,0)
GPGPU-Sim uArch: Shader 10 finished CTA #0 (75885,0), 5 CTAs running
GPGPU-Sim uArch: core: 10, cta: 0 initialized @(75886,0)
GPGPU-Sim uArch: Shader 6 finished CTA #0 (75940,0), 5 CTAs running
GPGPU-Sim uArch: core:  6, cta: 0 initialized @(75941,0)
GPGPU-Sim uArch: cycles simulated: 76000  inst.: 3070144 (ipc=40.4) sim_rate=42640 (inst/sec) elapsed = 0:0:01:12 / Tue Apr 16 16:49:58 2019
GPGPU-Sim uArch: Shader 5 finished CTA #1 (76100,0), 5 CTAs running
GPGPU-Sim uArch: core:  5, cta: 1 initialized @(76101,0)
GPGPU-Sim uArch: Shader 13 finished CTA #2 (76421,0), 5 CTAs running
GPGPU-Sim uArch: core: 13, cta: 2 initialized @(76422,0)
GPGPU-Sim uArch: cycles simulated: 77000  inst.: 3103040 (ipc=40.3) sim_rate=42507 (inst/sec) elapsed = 0:0:01:13 / Tue Apr 16 16:49:59 2019
GPGPU-Sim PTX: 3200000 instructions simulated : ctaid=(12,22,0) tid=(15,5,0)
GPGPU-Sim uArch: Shader 0 finished CTA #0 (77212,0), 5 CTAs running
GPGPU-Sim uArch: core:  0, cta: 0 initialized @(77213,0)
GPGPU-Sim uArch: Shader 7 finished CTA #0 (77743,0), 5 CTAs running
GPGPU-Sim uArch: core:  7, cta: 0 initialized @(77744,0)
GPGPU-Sim uArch: Shader 1 finished CTA #2 (77750,0), 5 CTAs running
GPGPU-Sim uArch: core:  1, cta: 2 initialized @(77751,0)
GPGPU-Sim uArch: Shader 4 finished CTA #1 (77869,0), 5 CTAs running
GPGPU-Sim uArch: core:  4, cta: 1 initialized @(77870,0)
GPGPU-Sim uArch: Shader 6 finished CTA #1 (77979,0), 5 CTAs running
GPGPU-Sim uArch: core:  6, cta: 1 initialized @(77980,0)
GPGPU-Sim uArch: cycles simulated: 78000  inst.: 3136832 (ipc=40.2) sim_rate=42389 (inst/sec) elapsed = 0:0:01:14 / Tue Apr 16 16:50:00 2019
GPGPU-Sim uArch: Shader 4 finished CTA #2 (78112,0), 5 CTAs running
GPGPU-Sim uArch: core:  4, cta: 2 initialized @(78113,0)
GPGPU-Sim uArch: Shader 14 finished CTA #2 (78307,0), 5 CTAs running
GPGPU-Sim uArch: core: 14, cta: 2 initialized @(78308,0)
GPGPU-Sim uArch: Shader 11 finished CTA #3 (78455,0), 5 CTAs running
GPGPU-Sim uArch: core: 11, cta: 3 initialized @(78456,0)
GPGPU-Sim uArch: Shader 3 finished CTA #2 (78630,0), 5 CTAs running
GPGPU-Sim uArch: core:  3, cta: 2 initialized @(78631,0)
GPGPU-Sim uArch: Shader 6 finished CTA #2 (78712,0), 5 CTAs running
GPGPU-Sim uArch: core:  6, cta: 2 initialized @(78713,0)
GPGPU-Sim uArch: Shader 0 finished CTA #5 (78831,0), 5 CTAs running
GPGPU-Sim uArch: core:  0, cta: 5 initialized @(78832,0)
GPGPU-Sim uArch: Shader 2 finished CTA #1 (78913,0), 5 CTAs running
GPGPU-Sim uArch: core:  2, cta: 1 initialized @(78914,0)
GPGPU-Sim uArch: Shader 4 finished CTA #3 (78951,0), 5 CTAs running
GPGPU-Sim uArch: core:  4, cta: 3 initialized @(78952,0)
GPGPU-Sim uArch: cycles simulated: 79000  inst.: 3173920 (ipc=40.2) sim_rate=42318 (inst/sec) elapsed = 0:0:01:15 / Tue Apr 16 16:50:01 2019
GPGPU-Sim uArch: Shader 2 finished CTA #2 (79214,0), 5 CTAs running
GPGPU-Sim uArch: core:  2, cta: 2 initialized @(79215,0)
GPGPU-Sim uArch: Shader 8 finished CTA #0 (79268,0), 5 CTAs running
GPGPU-Sim uArch: core:  8, cta: 0 initialized @(79269,0)
GPGPU-Sim uArch: cycles simulated: 79500  inst.: 3197728 (ipc=40.2) sim_rate=42075 (inst/sec) elapsed = 0:0:01:16 / Tue Apr 16 16:50:02 2019
GPGPU-Sim uArch: Shader 9 finished CTA #2 (79666,0), 5 CTAs running
GPGPU-Sim uArch: core:  9, cta: 2 initialized @(79667,0)
GPGPU-Sim uArch: Shader 14 finished CTA #3 (79706,0), 5 CTAs running
GPGPU-Sim uArch: core: 14, cta: 3 initialized @(79707,0)
GPGPU-Sim PTX: 3300000 instructions simulated : ctaid=(11,24,0) tid=(15,7,0)
GPGPU-Sim uArch: Shader 2 finished CTA #3 (79903,0), 5 CTAs running
GPGPU-Sim uArch: core:  2, cta: 3 initialized @(79904,0)
GPGPU-Sim uArch: Shader 5 finished CTA #2 (80112,0), 5 CTAs running
GPGPU-Sim uArch: core:  5, cta: 2 initialized @(80113,0)
GPGPU-Sim uArch: Shader 12 finished CTA #0 (80163,0), 5 CTAs running
GPGPU-Sim uArch: core: 12, cta: 0 initialized @(80164,0)
GPGPU-Sim uArch: Shader 12 finished CTA #1 (80203,0), 5 CTAs running
GPGPU-Sim uArch: core: 12, cta: 1 initialized @(80204,0)
GPGPU-Sim uArch: Shader 5 finished CTA #3 (80255,0), 5 CTAs running
GPGPU-Sim uArch: core:  5, cta: 3 initialized @(80256,0)
GPGPU-Sim uArch: Shader 0 finished CTA #1 (80600,0), 5 CTAs running
GPGPU-Sim uArch: core:  0, cta: 1 initialized @(80601,0)
GPGPU-Sim uArch: Shader 0 finished CTA #2 (80874,0), 5 CTAs running
GPGPU-Sim uArch: core:  0, cta: 2 initialized @(80875,0)
GPGPU-Sim uArch: cycles simulated: 81000  inst.: 3257952 (ipc=40.2) sim_rate=42311 (inst/sec) elapsed = 0:0:01:17 / Tue Apr 16 16:50:03 2019
GPGPU-Sim uArch: Shader 9 finished CTA #3 (81460,0), 5 CTAs running
GPGPU-Sim uArch: core:  9, cta: 3 initialized @(81461,0)
GPGPU-Sim uArch: Shader 9 finished CTA #4 (81951,0), 5 CTAs running
GPGPU-Sim uArch: core:  9, cta: 4 initialized @(81952,0)
GPGPU-Sim uArch: Shader 6 finished CTA #3 (82020,0), 5 CTAs running
GPGPU-Sim uArch: core:  6, cta: 3 initialized @(82021,0)
GPGPU-Sim PTX: 3400000 instructions simulated : ctaid=(2,24,0) tid=(15,5,0)
GPGPU-Sim uArch: cycles simulated: 82500  inst.: 3307072 (ipc=40.1) sim_rate=42398 (inst/sec) elapsed = 0:0:01:18 / Tue Apr 16 16:50:04 2019
GPGPU-Sim uArch: Shader 8 finished CTA #1 (82669,0), 5 CTAs running
GPGPU-Sim uArch: core:  8, cta: 1 initialized @(82670,0)
GPGPU-Sim uArch: Shader 8 finished CTA #2 (82773,0), 5 CTAs running
GPGPU-Sim uArch: core:  8, cta: 2 initialized @(82774,0)
GPGPU-Sim uArch: Shader 1 finished CTA #3 (82955,0), 5 CTAs running
GPGPU-Sim uArch: core:  1, cta: 3 initialized @(82956,0)
[...]
mf_lat_table:0 	0 	0 	0 	0 	0 	0 	80540 	435196 	659164 	263670 	6 	0 	0 	0 	0 	0 	0 	0 	0 	0 	0 	0 	0 	0 	0 	0 	0 	0 	0 	0 	0 	
icnt2mem_lat_table:0 	0 	0 	57156 	38179 	267715 	135405 	138609 	382367 	408055 	11180 	0 	0 	0 	0 	0 	0 	0 	0 	0 	0 	0 	0 	0 	
icnt2sh_lat_table:0 	0 	0 	109606 	109416 	36540 	3334 	32 	0 	0 	1 	581 	1102 	2653 	9314 	20697 	38853 	77637 	151780 	272477 	582993 	21560 	0 	0 	
mf_lat_pw_table:0 	0 	0 	0 	0 	0 	0 	2 	352 	3768 	179 	0 	0 	0 	0 	0 	0 	0 	0 	0 	0 	0 	0 	0 	0 	0 	0 	0 	0 	0 	0 	0 	
maximum concurrent accesses to same row:
dram[0]:        32        32        32        32        32        32        32        32        32        32        32        32        32        32        32        32 
dram[1]:        32        32        32        32        32        32        32        32        32        32        32        32        32        32        32        32 
dram[2]:        30        32        32        32        32        32        32        32        32        32        32        32        32        32        32        32 
dram[3]:        32        32        28        32        32        32        32        32        32        32        32        32        32        32        32        32 
dram[4]:        28        32        32        32        32        32        32        32        32        32        32        32        32        32        32        32 
dram[5]:        32        32        32        32        32        32        32        32        32        32        32        32        32        32        32        32 
maximum service time to same row:
dram[0]:     27633     30456     28409     30447     28406     31202     26957     31702     27031     28661     26903     26816     26695     30757     26222     30746 
dram[1]:     26537     42260     26536     42252     27773     45424     27344     45384     26824     41178     27347     27169     26072     35558     26098     42269 
dram[2]:     29865     26014     30450     32743     31224     26828     31722     26990     28659     27063     26921     27073     30760     26409     30749     25986 
dram[3]:     42263     26097     42254     27355     45433     29049     45385     27353     41447     27355     27160     28449     35552     26119     42272     26716 
dram[4]:     27640     30453     27561     30444     27151     31753     27000     31711     27065     28659     27074     26537     26417     30752     25587     30744 
dram[5]:     27344     42257     27346     42249     30396     45424     27353     45378     27355     41439     27133     28132     26134     35564     26706     42266 
average row accesses per activate:
dram[0]:  2.158945  2.164065  2.139832  2.152427  2.168276  2.162753  2.173308  2.178941  2.138633  2.161564  2.170949  2.181506  2.192530  2.166529  2.179532  2.163582 
dram[1]:  2.183523  2.143827  2.183970  2.153575  2.185408  2.144692  2.185374  2.167131  2.185339  2.162392  2.168309  2.160835  2.195034  2.183557  2.209047  2.168387 
dram[2]:  2.171055  2.160631  2.149650  2.140408  2.163171  2.156865  2.187154  2.174189  2.165773  2.152524  2.185456  2.193423  2.163921  2.203169  2.178605  2.187949 
dram[3]:  2.148713  2.174223  2.148826  2.192516  2.142034  2.181391  2.166636  2.178965  2.153974  2.182433  2.167671  2.163608  2.179969  2.207606  2.178920  2.208957 
dram[4]:  2.155804  2.173480  2.142486  2.151492  2.153499  2.169240  2.175168  2.187470  2.136982  2.167576  2.204616  2.188450  2.202524  2.165669  2.185980  2.174790 
dram[5]:  2.173476  2.144523  2.183425  2.151594  2.188459  2.147945  2.169831  2.165939  2.180351  2.170305  2.172950  2.166258  2.201099  2.181067  2.206593  2.176871 
average row locality = 2163676/996648 = 2.170953
number of total memory accesses made:
dram[0]:         0         0         0         0         0         0         0         0         0         0         0         0         0         0         0         0 
dram[1]:         0         0         0         0         0         0         0         0         0         0         0         0         0         0         0         0 
dram[2]:         0         0         0         0         0         0         0         0         0         0         0         0         0         0         0         0 
dram[3]:         0         0         0         0         0         0         0         0         0         0         0         0         0         0         0         0 
dram[4]:         0         0         0         0         0         0         0         0         0         0         0         0         0         0         0         0 
dram[5]:         0         0         0         0         0         0         0         0         0         0         0         0         0         0         0         0 
total accesses: 0
min_bank_accesses = 0!
min_chip_accesses = 0!
number of total read accesses:
dram[0]:     10944     10663     10863     10579     11008     10730     10998     10736     11126     10800     10537     10200     10096      9891     10139      9959 
dram[1]:     10848     11044     10729     10947     10905     11083     10847     11059     10910     11129     10430     10540     10058     10209     10102     10247 
dram[2]:     10704     10962     10583     10849     10739     11032     10737     10987     10824     11106     10304     10466      9920     10117      9935     10138 
dram[3]:     11065     10848     10969     10755     11111     10904     11085     10855     11151     10936     10685     10382     10194     10061     10269     10083 
dram[4]:     10958     10696     10850     10561     11016     10789     11002     10718     11099     10861     10424     10280     10119      9915     10129      9931 
dram[5]:     10818     11046     10730     10942     10884     11149     10819     11062     10935     11187     10428     10570     10065     10218     10104     10258 
total reads: 1021675
bank skew: 11187/9891 = 1.13
chip skew: 171353/169269 = 1.01
number of total write accesses:
dram[0]:     12310     12209     12275     12170     12340     12206     12289     12193     12307     12145     11598     11434     11154     11068     11179     11084 
dram[1]:     12317     12313     12242     12275     12339     12292     12283     12255     12283     12227     11574     11507     11157     11144     11191     11181 
dram[2]:     12218     12308     12156     12246     12262     12329     12180     12279     12196     12307     11544     11545     11096     11159     11082     11177 
dram[3]:     12313     12314     12277     12273     12310     12306     12267     12266     12239     12296     11616     11544     11137     11185     11189     11176 
dram[4]:     12329     12219     12246     12148     12343     12257     12281     12187     12286     12176     11545     11471     11175     11066     11169     11084 
dram[5]:     12323     12310     12244     12278     12364     12313     12268     12250     12301     12274     11534     11541     11158     11163     11183     11182 
total reads: 1142001
bank skew: 12364/11066 = 1.12
chip skew: 190708/189961 = 1.00
average mf latency per bank:
dram[0]:        461       448       464       453       462       450       468       452       467       450       468       450       467       454       466       454
dram[1]:        456       458       454       453       457       456       461       461       454       454       459       461       453       458       450       456
dram[2]:        451       457       456       459       451       457       453       463       453       462       454       457       457       463       458       462
dram[3]:        467       460       461       454       465       458       467       462       460       455       466       461       466       452       465       453
dram[4]:        454       452       459       458       458       450       462       455       460       452       462       450       461       456       461       455
dram[5]:        456       462       453       457       453       464       461       465       450       457       457       466       450       462       448       460
maximum mf latency per bank:
dram[0]:       1855      1780      1825      1753      1978      1667      1841      1627      1903      1640      1912      1645      1919      1796      1772      1773
dram[1]:       1883      1708      1860      1687      1802      1730      1868      1651      1975      1573      1755      1743      1863      1713      1884      1694
dram[2]:       1712      1864      1685      1948      1691      1806      1710      1865      1659      1793      1637      1886      1698      1772      1633      1774
dram[3]:       1776      1822      1707      1856      1736      1727      1674      1747      1715      1917      1725      1829      1663      1767      1717      1719
dram[4]:       2011      1671      2208      1708      2061      1690      1960      1686      2056      1718      2136      1672      2033      1627      1983      1779
dram[5]:       1779      1770      1669      1773      1725      1765      1775      1692      1714      1645      1677      1842      1810      1826      1726      1806

Number of Memory Banks Accessed per Memory Operation per Warp (from 0):
0	0	0	0	0	0	0	0	0	0	0	0	0	0	0	0	0	0	0	0	0	0	0	0	0	0	0	0	0	0	0	0	0	0	0	0	0	0	0	0	0	0	0	0	0	0	0	0	0	0	0	0	0	0	0	0	0	0	0	0	0	0	0	0	0	0	0	0	0	0	0	0	0	0	0	0	0	0	0	0	0	0	0	0	0	0	0	0	0	0	0	0	0	0	0	0	
Average # of Memory Banks Accessed per Memory Operation per Warp=-nan

position of mrq chosen
0	0	0	0	0	0	0	0	0	0	0	0	0	0	0	0	

average position of mrq chosen = -nan
Memory Partition 0: 
Cache L2_bank_000:
MSHR contents

Cache L2_bank_001:
MSHR contents

In Dram Latency Queue (total = 0): 
DRAM[0]: 16 bks, busW=4 BL=8 CL=12, tRRD=2 tCCD=6, tRCD=12 tRAS=28 tRP=12 tRC=40
n_cmd=2842210 n_nop=1970985 n_act=165892 n_pre=165876 n_req=359230 n_rd=338538 n_write=200919 bw_util=0.3796
n_activity=2358186 dram_eff=0.4575
bk0: 21888a 2135639i bk1: 21326a 2142041i bk2: 21726a 2112701i bk3: 21158a 2121385i bk4: 22016a 2102816i bk5: 21460a 2110719i bk6: 21996a 2090894i bk7: 21472a 2101387i bk8: 22252a 2117981i bk9: 21600a 2130681i bk10: 21074a 2147981i bk11: 20400a 2167606i bk12: 20192a 2163436i bk13: 19782a 2168436i bk14: 20278a 2151312i bk15: 19918a 2163361i 
dram_util_bins: 0 0 0 0 0 0 0 0 0 0
dram_eff_bins: 0 0 0 0 0 0 0 0 0 0
mrqq: max=16 avg=6.47603
Memory Partition 1: 
Cache L2_bank_002:
MSHR contents

Cache L2_bank_003:
MSHR contents
MSHR: tag=0x80737f80, atomic=0 1 entries : 0x7f6e754eb670 :  mf: uid=35404781, sid00:w22, part=1, addr=0x80737fc0, load , size=64, unknown  status = IN_PARTITION_DRAM (2153190), 

In Dram Latency Queue (total = 0): 
DRAM[1]: 16 bks, busW=4 BL=8 CL=12, tRRD=2 tCCD=6, tRCD=12 tRAS=28 tRP=12 tRC=40
n_cmd=2842210 n_nop=1966045 n_act=166412 n_pre=166396 n_req=361667 n_rd=342174 n_write=201183 bw_util=0.3823
n_activity=2364686 dram_eff=0.4596
bk0: 21696a 2135202i bk1: 22088a 2119143i bk2: 21458a 2122739i bk3: 21894a 2107369i bk4: 21810a 2100295i bk5: 22166a 2092245i bk6: 21694a 2095456i bk7: 22118a 2083254i bk8: 21820a 2132065i bk9: 22258a 2121247i bk10: 20860a 2149526i bk11: 21080a 2147525i bk12: 20116a 2165624i bk13: 20418a 2161465i bk14: 20204a 2156552i bk15: 20494a 2146871i 
dram_util_bins: 0 0 0 0 0 0 0 0 0 0
dram_eff_bins: 0 0 0 0 0 0 0 0 0 0
mrqq: max=16 avg=6.54913
Memory Partition 2: 
Cache L2_bank_004:
MSHR contents

Cache L2_bank_005:
MSHR contents

In Dram Latency Queue (total = 0): 
DRAM[2]: 16 bks, busW=4 BL=8 CL=12, tRRD=2 tCCD=6, tRCD=12 tRAS=28 tRP=12 tRC=40
n_cmd=2842210 n_nop=1971127 n_act=165635 n_pre=165619 n_req=359487 n_rd=338806 n_write=201023 bw_util=0.3799
n_activity=2356103 dram_eff=0.4582
bk0: 21408a 2145166i bk1: 21924a 2131128i bk2: 21166a 2124778i bk3: 21698a 2114938i bk4: 21478a 2112477i bk5: 22064a 2099600i bk6: 21474a 2103733i bk7: 21974a 2090739i bk8: 21648a 2133223i bk9: 22212a 2117772i bk10: 20608a 2155862i bk11: 20932a 2155632i bk12: 19840a 2169897i bk13: 20234a 2163816i bk14: 19870a 2166308i bk15: 20276a 2154128i 
dram_util_bins: 0 0 0 0 0 0 0 0 0 0
dram_eff_bins: 0 0 0 0 0 0 0 0 0 0
mrqq: max=16 avg=6.46194
Memory Partition 3: 
Cache L2_bank_006:
MSHR contents

Cache L2_bank_007:
MSHR contents

In Dram Latency Queue (total = 0): 
DRAM[3]: 16 bks, busW=4 BL=8 CL=12, tRRD=2 tCCD=6, tRCD=12 tRAS=28 tRP=12 tRC=40
n_cmd=2842210 n_nop=1964944 n_act=166624 n_pre=166608 n_req=362061 n_rd=342706 n_write=201328 bw_util=0.3828
n_activity=2365278 dram_eff=0.46
bk0: 22130a 2122277i bk1: 21696a 2129504i bk2: 21938a 2110667i bk3: 21510a 2122819i bk4: 22222a 2091613i bk5: 21808a 2102290i bk6: 22170a 2082170i bk7: 21710a 2089204i bk8: 22302a 2119556i bk9: 21872a 2125597i bk10: 21370a 2138901i bk11: 20764a 2147721i bk12: 20388a 2156740i bk13: 20122a 2163015i bk14: 20538a 2148308i bk15: 20166a 2158446i 
dram_util_bins: 0 0 0 0 0 0 0 0 0 0
dram_eff_bins: 0 0 0 0 0 0 0 0 0 0
mrqq: max=16 avg=6.54891
Memory Partition 4: 
Cache L2_bank_008:
MSHR contents

Cache L2_bank_009:
MSHR contents

In Dram Latency Queue (total = 0): 
DRAM[4]: 16 bks, busW=4 BL=8 CL=12, tRRD=2 tCCD=6, tRCD=12 tRAS=28 tRP=12 tRC=40
n_cmd=2842210 n_nop=1971484 n_act=165563 n_pre=165547 n_req=359330 n_rd=338696 n_write=200920 bw_util=0.3797
n_activity=2357287 dram_eff=0.4578
bk0: 21916a 2132580i bk1: 21392a 2143717i bk2: 21700a 2114470i bk3: 21122a 2122104i bk4: 22032a 2101503i bk5: 21578a 2108760i bk6: 22004a 2094121i bk7: 21436a 2099714i bk8: 22198a 2118603i bk9: 21722a 2127763i bk10: 20848a 2156366i bk11: 20560a 2164709i bk12: 20238a 2165305i bk13: 19830a 2168913i bk14: 20258a 2156989i bk15: 19862a 2168306i 
dram_util_bins: 0 0 0 0 0 0 0 0 0 0
dram_eff_bins: 0 0 0 0 0 0 0 0 0 0
mrqq: max=16 avg=6.45628
Memory Partition 5: 
Cache L2_bank_010:
MSHR contents

Cache L2_bank_011:
MSHR contents

In Dram Latency Queue (total = 0): 
DRAM[5]: 16 bks, busW=4 BL=8 CL=12, tRRD=2 tCCD=6, tRCD=12 tRAS=28 tRP=12 tRC=40
n_cmd=2842210 n_nop=1965516 n_act=166523 n_pre=166507 n_req=361901 n_rd=342430 n_write=201234 bw_util=0.3826
n_activity=2364340 dram_eff=0.4599
bk0: 21636a 2133549i bk1: 22092a 2121116i bk2: 21460a 2121419i bk3: 21884a 2110456i bk4: 21768a 2101865i bk5: 22298a 2088266i bk6: 21638a 2092452i bk7: 22124a 2081672i bk8: 21870a 2129437i bk9: 22374a 2118756i bk10: 20856a 2150988i bk11: 21140a 2143252i bk12: 20130a 2165678i bk13: 20436a 2157596i bk14: 20208a 2159982i bk15: 20516a 2149983i 
dram_util_bins: 0 0 0 0 0 0 0 0 0 0
dram_eff_bins: 0 0 0 0 0 0 0 0 0 0
mrqq: max=16 avg=6.53107

========= L2 cache stats =========
L2_cache_bank[0]: Access = 119942, Miss = 85711, Miss_rate = 0.715, Pending_hits = 16948, Reservation_fails = 460269
L2_cache_bank[1]: Access = 119878, Miss = 83558, Miss_rate = 0.697, Pending_hits = 17662, Reservation_fails = 429174
L2_cache_bank[2]: Access = 119927, Miss = 84829, Miss_rate = 0.707, Pending_hits = 17959, Reservation_fails = 440593
L2_cache_bank[3]: Access = 119879, Miss = 86258, Miss_rate = 0.720, Pending_hits = 15869, Reservation_fails = 458441
L2_cache_bank[4]: Access = 119977, Miss = 83746, Miss_rate = 0.698, Pending_hits = 17748, Reservation_fails = 436772
L2_cache_bank[5]: Access = 119845, Miss = 85657, Miss_rate = 0.715, Pending_hits = 16888, Reservation_fails = 453178
L2_cache_bank[6]: Access = 119955, Miss = 86529, Miss_rate = 0.721, Pending_hits = 15773, Reservation_fails = 467387
L2_cache_bank[7]: Access = 119835, Miss = 84824, Miss_rate = 0.708, Pending_hits = 17954, Reservation_fails = 441248
L2_cache_bank[8]: Access = 119816, Miss = 85597, Miss_rate = 0.714, Pending_hits = 16955, Reservation_fails = 456633
L2_cache_bank[9]: Access = 119893, Miss = 83751, Miss_rate = 0.699, Pending_hits = 17642, Reservation_fails = 435232
L2_cache_bank[10]: Access = 119819, Miss = 84783, Miss_rate = 0.708, Pending_hits = 17960, Reservation_fails = 436903
L2_cache_bank[11]: Access = 119900, Miss = 86432, Miss_rate = 0.721, Pending_hits = 15929, Reservation_fails = 461836
L2_total_cache_accesses = 1438666
L2_total_cache_misses = 1021675
L2_total_cache_miss_rate = 0.7102
L2_total_cache_pending_hits = 205287
L2_total_cache_reservation_fails = 5377666
L2_total_cache_breakdown:
	L2_cache_stats_breakdown[GLOBAL_ACC_R][HIT] = 109374
	L2_cache_stats_breakdown[GLOBAL_ACC_R][HIT_RESERVED] = 16065
	L2_cache_stats_breakdown[GLOBAL_ACC_R][MISS] = 133474
	L2_cache_stats_breakdown[GLOBAL_ACC_R][RESERVATION_FAIL] = 30774
	L2_cache_stats_breakdown[CONST_ACC_R][HIT] = 11
	L2_cache_stats_breakdown[CONST_ACC_R][HIT_RESERVED] = 3
	L2_cache_stats_breakdown[CONST_ACC_R][MISS] = 1
	L2_cache_stats_breakdown[CONST_ACC_R][RESERVATION_FAIL] = 93
	L2_cache_stats_breakdown[GLOBAL_ACC_W][HIT] = 102253
	L2_cache_stats_breakdown[GLOBAL_ACC_W][HIT_RESERVED] = 189201
	L2_cache_stats_breakdown[GLOBAL_ACC_W][MISS] = 888194
	L2_cache_stats_breakdown[GLOBAL_ACC_W][RESERVATION_FAIL] = 5346151
	L2_cache_stats_breakdown[INST_ACC_R][HIT] = 66
	L2_cache_stats_breakdown[INST_ACC_R][HIT_RESERVED] = 18
	L2_cache_stats_breakdown[INST_ACC_R][MISS] = 6
	L2_cache_stats_breakdown[INST_ACC_R][RESERVATION_FAIL] = 648
L2_cache_data_port_util = 0.022
L2_cache_fill_port_util = 0.158

icnt_total_pkts_mem_to_simt=2474708
icnt_total_pkts_simt_to_mem=2749386
LD_mem_lat_dist  0 0 0 0 0 0 0 0 0 0 0 0 0 0 0 0 0 0 0 0 0 0 0 0 0 0 0
ST_mem_lat_dist  0 0 0 0 0 0 0 0 0 0 0 0 0 0 0 0 0 0 0 0 0 0 0 0 0 0 0
----------------------------Interconnect-DETAILS--------------------------------
Class 0:
Packet latency average = 61.2135
	minimum = 6
	maximum = 854
Network latency average = 38.5839
	minimum = 6
	maximum = 662
Slowest packet = 2618407
Flit latency average = 32.5371
	minimum = 6
	maximum = 662
Slowest flit = 5000168
Fragmentation average = 0.375559
	minimum = 0
	maximum = 450
Injected packet rate average = 0.0556856
	minimum = 0.0469519 (at node 7)
	maximum = 0.0627947 (at node 19)
Accepted packet rate average = 0.0556856
	minimum = 0.0469519 (at node 7)
	maximum = 0.0627947 (at node 19)
Injected flit rate average = 0.139069
	minimum = 0.0939961 (at node 7)
	maximum = 0.188033 (at node 24)
Accepted flit rate average= 0.139069
	minimum = 0.125474 (at node 18)
	maximum = 0.160135 (at node 4)
Injected packet length average = 2.4974
Accepted packet length average = 2.4974
Total in-flight flits = 0 (0 measured)
====== Overall Traffic Statistics ======
====== Traffic class 0 ======
Packet latency average = 82.3374 (4 samples)
	minimum = 6 (4 samples)
	maximum = 1058.25 (4 samples)
Network latency average = 47.8262 (4 samples)
	minimum = 6 (4 samples)
	maximum = 857 (4 samples)
Flit latency average = 47.4347 (4 samples)
	minimum = 6 (4 samples)
	maximum = 856.5 (4 samples)
Fragmentation average = 0.287244 (4 samples)
	minimum = 0 (4 samples)
	maximum = 501.75 (4 samples)
Injected packet rate average = 0.0515376 (4 samples)
	minimum = 0.0443436 (4 samples)
	maximum = 0.0580729 (4 samples)
Accepted packet rate average = 0.0515376 (4 samples)
	minimum = 0.0443436 (4 samples)
	maximum = 0.0580729 (4 samples)
Injected flit rate average = 0.108519 (4 samples)
	minimum = 0.0856086 (4 samples)
	maximum = 0.134358 (4 samples)
Accepted flit rate average = 0.108519 (4 samples)
	minimum = 0.0918513 (4 samples)
	maximum = 0.129687 (4 samples)
Injected packet size average = 2.10563 (4 samples)
Accepted packet size average = 2.10563 (4 samples)
Hops average = 1 (4 samples)
----------------------------END-of-Interconnect-DETAILS-------------------------
GPGPU-Sim API: Stream Manager State


gpgpu_simulation_time = 0 days, 0 hrs, 27 min, 18 sec (1638 sec)
gpgpu_simulation_rate = 117788 (inst/sec)
gpgpu_simulation_rate = 1314 (cycle/sec)
GPGPU-Sim: detected inactive GPU simulation thread
Naive transpose average time:     480968.969 ms
Optimized transpose average time: 216268.031 ms

Test PASSED
GPGPU-Sim: exit_simulation called
GPGPU-Sim: simulation thread signaled exit

Press ENTER to exit...
