

        *** GPGPU-Sim Simulator Version 3.2.2  [build 0] ***


GPGPU-Sim PTX: simulation mode 0 (can change with PTX_SIM_MODE_FUNC environment variable:
               1=functional simulation only, 0=detailed performance simulator)
GPGPU-Sim: Configuration options:

-network_mode                           1 # Interconnection network mode
-inter_config_file   config_fermi_islip.icnt # Interconnection network config file
-gpgpu_ptx_use_cuobjdump                    1 # Use cuobjdump to extract ptx and sass from binaries
-gpgpu_experimental_lib_support                    0 # Try to extract code from cuda libraries [Broken because of unknown cudaGetExportTable]
-gpgpu_ptx_convert_to_ptxplus                    0 # Convert SASS (native ISA) to ptxplus and run ptxplus
-gpgpu_ptx_force_max_capability                   20 # Force maximum compute capability
-gpgpu_ptx_inst_debug_to_file                    0 # Dump executed instructions' debug information to file
-gpgpu_ptx_inst_debug_file       inst_debug.txt # Executed instructions' debug output file
-gpgpu_ptx_inst_debug_thread_uid                    1 # Thread UID for executed instructions' debug output
-gpgpu_simd_model                       1 # 1 = post-dominator
-gpgpu_shader_core_pipeline              1536:32 # shader core pipeline config, i.e., {<nthread>:<warpsize>}
-gpgpu_tex_cache:l1  4:128:24,L:R:m:N:L,F:128:4,128:2 # per-shader L1 texture cache  (READ-ONLY) config  {<nsets>:<bsize>:<assoc>,<rep>:<wr>:<alloc>:<wr_alloc>,<mshr>:<N>:<merge>,<mq>:<rf>}
-gpgpu_const_cache:l1 64:64:2,L:R:f:N:L,A:2:32,4 # per-shader L1 constant memory cache  (READ-ONLY) config  {<nsets>:<bsize>:<assoc>,<rep>:<wr>:<alloc>:<wr_alloc>,<mshr>:<N>:<merge>,<mq>} 
-gpgpu_cache:il1     4:128:4,L:R:f:N:L,A:2:32,4 # shader L1 instruction cache config  {<nsets>:<bsize>:<assoc>,<rep>:<wr>:<alloc>:<wr_alloc>,<mshr>:<N>:<merge>,<mq>} 
-gpgpu_cache:dl1     32:128:1,L:L:m:N:H,A:32:8,8 # per-shader L1 data cache config  {<nsets>:<bsize>:<assoc>,<rep>:<wr>:<alloc>:<wr_alloc>,<mshr>:<N>:<merge>,<mq> | none}
-gpgpu_cache:dl1PrefL1                 none # per-shader L1 data cache config  {<nsets>:<bsize>:<assoc>,<rep>:<wr>:<alloc>:<wr_alloc>,<mshr>:<N>:<merge>,<mq> | none}
-gpgpu_cache:dl1PreShared                 none # per-shader L1 data cache config  {<nsets>:<bsize>:<assoc>,<rep>:<wr>:<alloc>:<wr_alloc>,<mshr>:<N>:<merge>,<mq> | none}
-gmem_skip_L1D                          0 # global memory access skip L1D cache (implements -Xptxas -dlcm=cg, default=no skip)
-gpgpu_perfect_mem                      0 # enable perfect memory mode (no cache miss)
-n_regfile_gating_group                    4 # group of lanes that should be read/written together)
-gpgpu_clock_gated_reg_file                    0 # enable clock gated reg file for power calculations
-gpgpu_clock_gated_lanes                    0 # enable clock gated lanes for power calculations
-gpgpu_shader_registers                32768 # Number of registers per shader core. Limits number of concurrent CTAs. (default 8192)
-gpgpu_shader_cta                       8 # Maximum number of concurrent CTAs in shader (default 8)
-gpgpu_num_cta_barriers                   16 # Maximum number of named barriers per CTA (default 16)
-gpgpu_n_clusters                      15 # number of processing clusters
-gpgpu_n_cores_per_cluster                    1 # number of simd cores per cluster
-gpgpu_n_cluster_ejection_buffer_size                    8 # number of packets in ejection buffer
-gpgpu_n_ldst_response_buffer_size                    2 # number of response packets in ld/st unit ejection buffer
-gpgpu_shmem_size                   16384 # Size of shared memory per shader core (default 16kB)
-gpgpu_shmem_size                   49152 # Size of shared memory per shader core (default 16kB)
-gpgpu_shmem_size_PrefL1                16384 # Size of shared memory per shader core (default 16kB)
-gpgpu_shmem_size_PrefShared                16384 # Size of shared memory per shader core (default 16kB)
-gpgpu_shmem_num_banks                   32 # Number of banks in the shared memory in each shader core (default 16)
-gpgpu_shmem_limited_broadcast                    0 # Limit shared memory to do one broadcast per cycle (default on)
-gpgpu_shmem_warp_parts                    1 # Number of portions a warp is divided into for shared memory bank conflict check 
-gpgpu_warpdistro_shader                   -1 # Specify which shader core to collect the warp size distribution from
-gpgpu_warp_issue_shader                    0 # Specify which shader core to collect the warp issue distribution from
-gpgpu_local_mem_map                    1 # Mapping from local memory space address to simulated GPU physical address space (default = enabled)
-gpgpu_num_reg_banks                   16 # Number of register banks (default = 8)
-gpgpu_reg_bank_use_warp_id                    0 # Use warp ID in mapping registers to banks (default = off)
-gpgpu_operand_collector_num_units_sp                    6 # number of collector units (default = 4)
-gpgpu_operand_collector_num_units_sfu                    8 # number of collector units (default = 4)
-gpgpu_operand_collector_num_units_mem                    2 # number of collector units (default = 2)
-gpgpu_operand_collector_num_units_gen                    0 # number of collector units (default = 0)
-gpgpu_operand_collector_num_in_ports_sp                    2 # number of collector unit in ports (default = 1)
-gpgpu_operand_collector_num_in_ports_sfu                    1 # number of collector unit in ports (default = 1)
-gpgpu_operand_collector_num_in_ports_mem                    1 # number of collector unit in ports (default = 1)
-gpgpu_operand_collector_num_in_ports_gen                    0 # number of collector unit in ports (default = 0)
-gpgpu_operand_collector_num_out_ports_sp                    2 # number of collector unit in ports (default = 1)
-gpgpu_operand_collector_num_out_ports_sfu                    1 # number of collector unit in ports (default = 1)
-gpgpu_operand_collector_num_out_ports_mem                    1 # number of collector unit in ports (default = 1)
-gpgpu_operand_collector_num_out_ports_gen                    0 # number of collector unit in ports (default = 0)
-gpgpu_coalesce_arch                   13 # Coalescing arch (default = 13, anything else is off for now)
-gpgpu_num_sched_per_core                    2 # Number of warp schedulers per core
-gpgpu_max_insn_issue_per_warp                    1 # Max number of instructions that can be issued per warp in one cycle by scheduler
-gpgpu_simt_core_sim_order                    1 # Select the simulation order of cores in a cluster (0=Fix, 1=Round-Robin)
-gpgpu_pipeline_widths        2,1,1,2,1,1,2 # Pipeline widths ID_OC_SP,ID_OC_SFU,ID_OC_MEM,OC_EX_SP,OC_EX_SFU,OC_EX_MEM,EX_WB
-gpgpu_num_sp_units                     2 # Number of SP units (default=1)
-gpgpu_num_sfu_units                    1 # Number of SF units (default=1)
-gpgpu_num_mem_units                    1 # Number if ldst units (default=1) WARNING: not hooked up to anything
-gpgpu_scheduler                      gto # Scheduler configuration: < lrr | gto | two_level_active > If two_level_active:<num_active_warps>:<inner_prioritization>:<outer_prioritization>For complete list of prioritization values see shader.h enum scheduler_prioritization_typeDefault: gto
-gpgpu_dram_scheduler                    1 # 0 = fifo, 1 = FR-FCFS (defaul)
-gpgpu_dram_partition_queues              8:8:8:8 # i2$:$2d:d2$:$2i
-l2_ideal                               0 # Use a ideal L2 cache that always hit
-gpgpu_cache:dl2     64:128:8,L:B:m:W:L,A:32:4,4:0,32 # unified banked L2 data cache config  {<nsets>:<bsize>:<assoc>,<rep>:<wr>:<alloc>:<wr_alloc>,<mshr>:<N>:<merge>,<mq>}
-gpgpu_cache:dl2_texture_only                    0 # L2 cache used for texture only
-gpgpu_n_mem                            6 # number of memory modules (e.g. memory controllers) in gpu
-gpgpu_n_sub_partition_per_mchannel                    2 # number of memory subpartition in each memory module
-gpgpu_n_mem_per_ctrlr                    2 # number of memory chips per memory controller
-gpgpu_memlatency_stat                   14 # track and display latency statistics 0x2 enables MC, 0x4 enables queue logs
-gpgpu_frfcfs_dram_sched_queue_size                   16 # 0 = unlimited (default); # entries per chip
-gpgpu_dram_return_queue_size                  116 # 0 = unlimited (default); # entries per chip
-gpgpu_dram_buswidth                    4 # default = 4 bytes (8 bytes per cycle at DDR)
-gpgpu_dram_burst_length                    8 # Burst length of each DRAM request (default = 4 data bus cycle)
-dram_data_command_freq_ratio                    4 # Frequency ratio between DRAM data bus and command bus (default = 2 times, i.e. DDR)
-gpgpu_dram_timing_opt nbk=16:CCD=2:RRD=6:RCD=12:RAS=28:RP=12:RC=40: CL=12:WL=4:CDLR=5:WR=12:nbkgrp=4:CCDL=3:RTPL=2 # DRAM timing parameters = {nbk:tCCD:tRRD:tRCD:tRAS:tRP:tRC:CL:WL:tCDLR:tWR:nbkgrp:tCCDL:tRTPL}
-rop_latency                          120 # ROP queue latency (default 85)
-dram_latency                         100 # DRAM latency (default 30)
-gpgpu_mem_addr_mapping dramid@8;00000000.00000000.00000000.00000000.0000RRRR.RRRRRRRR.BBBCCCCB.CCSSSSSS # mapping memory address to dram model {dramid@<start bit>;<memory address map>}
-gpgpu_mem_addr_test                    0 # run sweep test to check address mapping for aliased address
-gpgpu_mem_address_mask                    1 # 0 = old addressing mask, 1 = new addressing mask, 2 = new add. mask + flipped bank sel and chip sel bits
-gpuwattch_xml_file  gpuwattch_gtx480.xml # GPUWattch XML file
-power_simulation_enabled                    1 # Turn on power simulator (1=On, 0=Off)
-power_per_cycle_dump                    0 # Dump detailed power output each cycle
-power_trace_enabled                    0 # produce a file for the power trace (1=On, 0=Off)
-power_trace_zlevel                     6 # Compression level of the power trace output log (0=no comp, 9=highest)
-steady_power_levels_enabled                    0 # produce a file for the steady power levels (1=On, 0=Off)
-steady_state_definition                  8:4 # allowed deviation:number of samples
-gpgpu_max_cycle                        0 # terminates gpu simulation early (0 = no limit)
-gpgpu_max_insn                         0 # terminates gpu simulation early (0 = no limit)
-gpgpu_max_cta                          0 # terminates gpu simulation early (0 = no limit)
-gpgpu_runtime_stat                   500 # display runtime statistics such as dram utilization {<freq>:<flag>}
-liveness_message_freq                    1 # Minimum number of seconds between simulation liveness messages (0 = always print)
-gpgpu_flush_l1_cache                    0 # Flush L1 cache at the end of each kernel call
-gpgpu_flush_l2_cache                    0 # Flush L2 cache at the end of each kernel call
-gpgpu_deadlock_detect                    1 # Stop the simulation at deadlock (1=on (default), 0=off)
-gpgpu_ptx_instruction_classification                    0 # if enabled will classify ptx instruction types per kernel (Max 255 kernels now)
-gpgpu_ptx_sim_mode                     0 # Select between Performance (default) or Functional simulation (1)
-gpgpu_clock_domains 700.0:700.0:700.0:924.0 # Clock Domain Frequencies in MhZ {<Core Clock>:<ICNT Clock>:<L2 Clock>:<DRAM Clock>}
-gpgpu_max_concurrent_kernel                    8 # maximum kernels that can run concurrently on GPU
-gpgpu_cflog_interval                    0 # Interval between each snapshot in control flow logger
-visualizer_enabled                     0 # Turn on visualizer output (1=On, 0=Off)
-visualizer_outputfile                 NULL # Specifies the output log file for visualizer
-visualizer_zlevel                      6 # Compression level of the visualizer output log (0=no comp, 9=highest)
-trace_enabled                          0 # Turn on traces
-trace_components                    none # comma seperated list of traces to enable. Complete list found in trace_streams.tup. Default none
-trace_sampling_core                    0 # The core which is printed using CORE_DPRINTF. Default 0
-trace_sampling_memory_partition                   -1 # The memory partition which is printed using MEMPART_DPRINTF. Default -1 (i.e. all)
-enable_ptx_file_line_stats                    1 # Turn on PTX source line statistic profiling. (1 = On)
-ptx_line_stats_filename gpgpu_inst_stats.txt # Output file for PTX source line statistics.
-save_embedded_ptx                      0 # saves ptx files embedded in binary as <n>.ptx
-keep                                   0 # keep intermediate files created by GPGPU-Sim when interfacing with external programs
-gpgpu_ptx_save_converted_ptxplus                    0 # Saved converted ptxplus to a file
-ptx_opcode_latency_int         4,13,4,5,145 # Opcode latencies for integers <ADD,MAX,MUL,MAD,DIV>Default 1,1,19,25,145
-ptx_opcode_latency_fp          4,13,4,5,39 # Opcode latencies for single precision floating points <ADD,MAX,MUL,MAD,DIV>Default 1,1,1,1,30
-ptx_opcode_latency_dp         8,19,8,8,330 # Opcode latencies for double precision floating points <ADD,MAX,MUL,MAD,DIV>Default 8,8,8,8,335
-ptx_opcode_initiation_int            1,2,2,1,8 # Opcode initiation intervals for integers <ADD,MAX,MUL,MAD,DIV>Default 1,1,4,4,32
-ptx_opcode_initiation_fp            1,2,1,1,4 # Opcode initiation intervals for single precision floating points <ADD,MAX,MUL,MAD,DIV>Default 1,1,1,1,5
-ptx_opcode_initiation_dp         8,16,8,8,130 # Opcode initiation intervals for double precision floating points <ADD,MAX,MUL,MAD,DIV>Default 8,8,8,8,130
DRAM Timing Options:
nbk                                    16 # number of banks
CCD                                     2 # column to column delay
RRD                                     6 # minimal delay between activation of rows in different banks
RCD                                    12 # row to column delay
RAS                                    28 # time needed to activate row
RP                                     12 # time needed to precharge (deactivate) row
RC                                     40 # row cycle time
CDLR                                    5 # switching from write to read (changes tWTR)
WR                                     12 # last data-in to row precharge
CL                                     12 # CAS latency
WL                                      4 # Write latency
nbkgrp                                  4 # number of bank groups
CCDL                                    3 # column to column delay between accesses to different bank groups
RTPL                                    2 # read to precharge delay between accesses to different bank groups
Total number of memory sub partition = 12
addr_dec_mask[CHIP]  = 0000000000000000 	high:64 low:0
addr_dec_mask[BK]    = 000000000000e100 	high:16 low:8
addr_dec_mask[ROW]   = 000000000fff0000 	high:28 low:16
addr_dec_mask[COL]   = 0000000000001eff 	high:13 low:0
addr_dec_mask[BURST] = 000000000000003f 	high:6 low:0
sub_partition_id_mask = 0000000000000100
GPGPU-Sim uArch: clock freqs: 700000000.000000:700000000.000000:700000000.000000:924000000.000000
GPGPU-Sim uArch: clock periods: 0.00000000142857142857:0.00000000142857142857:0.00000000142857142857:0.00000000108225108225
*** Initializing Memory Statistics ***
GPGPU-Sim uArch: interconnect node map (shaderID+MemID to icntID)
GPGPU-Sim uArch: Memory nodes ID start from index: 15
GPGPU-Sim uArch:    0   1   2   3   4
GPGPU-Sim uArch:    5   6   7   8   9
GPGPU-Sim uArch:   10  11  12  13  14
GPGPU-Sim uArch:   15  16  17  18  19
GPGPU-Sim uArch:   20  21  22  23  24
GPGPU-Sim uArch:   25  26
GPGPU-Sim uArch: interconnect node reverse map (icntID to shaderID+MemID)
GPGPU-Sim uArch: Memory nodes start from ID: 15
GPGPU-Sim uArch:    0   1   2   3   4
GPGPU-Sim uArch:    5   6   7   8   9
GPGPU-Sim uArch:   10  11  12  13  14
GPGPU-Sim uArch:   15  16  17  18  19
GPGPU-Sim uArch:   20  21  22  23  24
GPGPU-Sim uArch:   25  26
42f7b457b4f8bc5f243a2d9180567621  /home/scratch/adwait/applications/benchmarks/CUDA/BlackScholes/gpgpu_ptx_sim__BlackScholes
GPGPU-Sim uArch: performance model initialization complete.
GPGPU-Sim PTX: __cudaRegisterFatBinary, fat_cubin_handle = 1, filename=BlackScholes.cu
self exe links to: /home/scratch/adwait/applications/benchmarks/CUDA/BlackScholes/gpgpu_ptx_sim__BlackScholes
Running md5sum using "md5sum /home/scratch/adwait/applications/benchmarks/CUDA/BlackScholes/gpgpu_ptx_sim__BlackScholes "
Running cuobjdump using "$CUDA_INSTALL_PATH/bin/cuobjdump -ptx -elf -sass /home/scratch/adwait/applications/benchmarks/CUDA/BlackScholes/gpgpu_ptx_sim__BlackScholes > _cuobjdump_complete_output_NWBAAm"
Parsing file _cuobjdump_complete_output_NWBAAm
######### cuobjdump parser ########
## Adding new section ELF
Adding arch: sm_20
Adding identifier: BlackScholes.cu
## Adding new section PTX
Adding ptx filename: _cuobjdump_1.ptx
Adding arch: sm_20
Adding identifier: BlackScholes.cu
Done parsing!!!
GPGPU-Sim PTX: __cudaRegisterFunction _Z15BlackScholesGPUPfS_S_S_S_ffi : hostFun 0x0x4050ed, fat_cubin_handle = 1
GPGPU-Sim PTX: instruction assembly for function '_Z15BlackScholesGPUPfS_S_S_S_ffi'...   done.
GPGPU-Sim PTX: finding reconvergence points for '_Z15BlackScholesGPUPfS_S_S_S_ffi'...
GPGPU-Sim PTX: Finding dominators for '_Z15BlackScholesGPUPfS_S_S_S_ffi'...
GPGPU-Sim PTX: Finding immediate dominators for '_Z15BlackScholesGPUPfS_S_S_S_ffi'...
GPGPU-Sim PTX: Finding postdominators for '_Z15BlackScholesGPUPfS_S_S_S_ffi'...
GPGPU-Sim PTX: Finding immediate postdominators for '_Z15BlackScholesGPUPfS_S_S_S_ffi'...
GPGPU-Sim PTX: pre-decoding instructions for '_Z15BlackScholesGPUPfS_S_S_S_ffi'...
GPGPU-Sim PTX: reconvergence points for _Z15BlackScholesGPUPfS_S_S_S_ffi...
GPGPU-Sim PTX:  1 (potential) branch divergence @  PC=0x040 (_1.ptx:76) @%p1 bra $Lt_0_2818;
GPGPU-Sim PTX:    immediate post dominator      @  PC=0x3f8 (_1.ptx:200) exit;
GPGPU-Sim PTX:  2 (potential) branch divergence @  PC=0x3f0 (_1.ptx:197) @%p4 bra $Lt_0_3330;
GPGPU-Sim PTX:    immediate post dominator      @  PC=0x3f8 (_1.ptx:200) exit;
GPGPU-Sim PTX: ... end of reconvergence points for _Z15BlackScholesGPUPfS_S_S_S_ffi
GPGPU-Sim PTX: ... done pre-decoding instructions for '_Z15BlackScholesGPUPfS_S_S_S_ffi'.
GPGPU-Sim PTX: finished parsing EMBEDDED .ptx file _1.ptx
Adding _cuobjdump_1.ptx with cubin handle 1
GPGPU-Sim PTX: extracting embedded .ptx to temporary file "_ptx_EwZEte"
Running: cat _ptx_EwZEte | sed 's/.version 1.5/.version 1.4/' | sed 's/, texmode_independent//' | sed 's/\(\.extern \.const\[1\] .b8 \w\+\)\[\]/\1\[1\]/' | sed 's/const\[.\]/const\[0\]/g' > _ptx2_FDKgx6
GPGPU-Sim PTX: generating ptxinfo using "$CUDA_INSTALL_PATH/bin/ptxas --gpu-name=sm_20 -v _ptx2_FDKgx6 --output-file  /dev/null 2> _ptx_EwZEteinfo"
GPGPU-Sim PTX: Kernel '_Z15BlackScholesGPUPfS_S_S_S_ffi' : regs=31, lmem=0, smem=0, cmem=128
GPGPU-Sim PTX: removing ptxinfo using "rm -f _ptx_EwZEte _ptx2_FDKgx6 _ptx_EwZEteinfo"
GPGPU-Sim PTX: loading globals with explicit initializers... 
GPGPU-Sim PTX: finished loading globals (0 bytes total).
GPGPU-Sim PTX: loading constants with explicit initializers...  done.
Initializing data...
...allocating CPU memory for options.
...allocating GPU memory for options.
...generating input data in CPU mem.
...copying input data to GPU mem.
Data init done.
Executing Black-Scholes GPU kernel (1 iterations)...
GPGPU-Sim: synchronize waiting for inactive GPU simulation
GPGPU-Sim API: Stream Manager State
GPGPU-Sim: detected inactive GPU simulation thread

GPGPU-Sim PTX: cudaLaunch for 0x0x4050ed (mode=performance simulation) on stream 0
GPGPU-Sim PTX: pushing kernel '_Z15BlackScholesGPUPfS_S_S_S_ffi' to stream 0, gridDim= (480,1,1) blockDim = (128,1,1) 
kernel '_Z15BlackScholesGPUPfS_S_S_S_ffi' transfer to GPU hardware scheduler
GPGPU-Sim uArch: Shader 1 bind to kernel 1 '_Z15BlackScholesGPUPfS_S_S_S_ffi'
GPGPU-Sim uArch: CTA/core = 8, limited by: regs cta_limit
GPGPU-Sim uArch: core:  1, cta: 0 initialized @(1,0)
GPGPU-Sim uArch: Shader 2 bind to kernel 1 '_Z15BlackScholesGPUPfS_S_S_S_ffi'
GPGPU-Sim uArch: core:  2, cta: 0 initialized @(1,0)
GPGPU-Sim uArch: Shader 3 bind to kernel 1 '_Z15BlackScholesGPUPfS_S_S_S_ffi'
GPGPU-Sim uArch: core:  3, cta: 0 initialized @(1,0)
GPGPU-Sim uArch: Shader 4 bind to kernel 1 '_Z15BlackScholesGPUPfS_S_S_S_ffi'
GPGPU-Sim uArch: core:  4, cta: 0 initialized @(1,0)
GPGPU-Sim uArch: Shader 5 bind to kernel 1 '_Z15BlackScholesGPUPfS_S_S_S_ffi'
GPGPU-Sim uArch: core:  5, cta: 0 initialized @(1,0)
GPGPU-Sim uArch: Shader 6 bind to kernel 1 '_Z15BlackScholesGPUPfS_S_S_S_ffi'
GPGPU-Sim uArch: core:  6, cta: 0 initialized @(1,0)
GPGPU-Sim uArch: Shader 7 bind to kernel 1 '_Z15BlackScholesGPUPfS_S_S_S_ffi'
GPGPU-Sim uArch: core:  7, cta: 0 initialized @(1,0)
GPGPU-Sim uArch: Shader 8 bind to kernel 1 '_Z15BlackScholesGPUPfS_S_S_S_ffi'
GPGPU-Sim uArch: core:  8, cta: 0 initialized @(1,0)
GPGPU-Sim uArch: Shader 9 bind to kernel 1 '_Z15BlackScholesGPUPfS_S_S_S_ffi'
GPGPU-Sim uArch: core:  9, cta: 0 initialized @(1,0)
GPGPU-Sim uArch: Shader 10 bind to kernel 1 '_Z15BlackScholesGPUPfS_S_S_S_ffi'
GPGPU-Sim uArch: core: 10, cta: 0 initialized @(1,0)
GPGPU-Sim uArch: Shader 11 bind to kernel 1 '_Z15BlackScholesGPUPfS_S_S_S_ffi'
GPGPU-Sim uArch: core: 11, cta: 0 initialized @(1,0)
GPGPU-Sim uArch: Shader 12 bind to kernel 1 '_Z15BlackScholesGPUPfS_S_S_S_ffi'
GPGPU-Sim uArch: core: 12, cta: 0 initialized @(1,0)
GPGPU-Sim uArch: Shader 13 bind to kernel 1 '_Z15BlackScholesGPUPfS_S_S_S_ffi'
GPGPU-Sim uArch: core: 13, cta: 0 initialized @(1,0)
GPGPU-Sim uArch: Shader 14 bind to kernel 1 '_Z15BlackScholesGPUPfS_S_S_S_ffi'
GPGPU-Sim uArch: core: 14, cta: 0 initialized @(1,0)
GPGPU-Sim uArch: Shader 0 bind to kernel 1 '_Z15BlackScholesGPUPfS_S_S_S_ffi'
GPGPU-Sim uArch: core:  0, cta: 0 initialized @(1,0)
GPGPU-Sim uArch: core:  1, cta: 1 initialized @(2,0)
GPGPU-Sim uArch: core:  2, cta: 1 initialized @(2,0)
GPGPU-Sim uArch: core:  3, cta: 1 initialized @(2,0)
GPGPU-Sim uArch: core:  4, cta: 1 initialized @(2,0)
GPGPU-Sim uArch: core:  5, cta: 1 initialized @(2,0)
GPGPU-Sim uArch: core:  6, cta: 1 initialized @(2,0)
GPGPU-Sim uArch: core:  7, cta: 1 initialized @(2,0)
GPGPU-Sim uArch: core:  8, cta: 1 initialized @(2,0)
GPGPU-Sim uArch: core:  9, cta: 1 initialized @(2,0)
GPGPU-Sim uArch: core: 10, cta: 1 initialized @(2,0)
GPGPU-Sim uArch: core: 11, cta: 1 initialized @(2,0)
GPGPU-Sim uArch: core: 12, cta: 1 initialized @(2,0)
GPGPU-Sim uArch: core: 13, cta: 1 initialized @(2,0)
GPGPU-Sim uArch: core: 14, cta: 1 initialized @(2,0)
GPGPU-Sim uArch: core:  0, cta: 1 initialized @(2,0)
GPGPU-Sim uArch: core:  1, cta: 2 initialized @(3,0)
GPGPU-Sim uArch: core:  2, cta: 2 initialized @(3,0)
GPGPU-Sim uArch: core:  3, cta: 2 initialized @(3,0)
GPGPU-Sim uArch: core:  4, cta: 2 initialized @(3,0)
GPGPU-Sim uArch: core:  5, cta: 2 initialized @(3,0)
GPGPU-Sim uArch: core:  6, cta: 2 initialized @(3,0)
GPGPU-Sim uArch: core:  7, cta: 2 initialized @(3,0)
GPGPU-Sim uArch: core:  8, cta: 2 initialized @(3,0)
GPGPU-Sim uArch: core:  9, cta: 2 initialized @(3,0)
GPGPU-Sim uArch: core: 10, cta: 2 initialized @(3,0)
GPGPU-Sim uArch: core: 11, cta: 2 initialized @(3,0)
GPGPU-Sim uArch: core: 12, cta: 2 initialized @(3,0)
GPGPU-Sim uArch: core: 13, cta: 2 initialized @(3,0)
GPGPU-Sim uArch: core: 14, cta: 2 initialized @(3,0)
GPGPU-Sim uArch: core:  0, cta: 2 initialized @(3,0)
GPGPU-Sim uArch: core:  1, cta: 3 initialized @(4,0)
GPGPU-Sim uArch: core:  2, cta: 3 initialized @(4,0)
GPGPU-Sim uArch: core:  3, cta: 3 initialized @(4,0)
GPGPU-Sim uArch: core:  4, cta: 3 initialized @(4,0)
GPGPU-Sim uArch: core:  5, cta: 3 initialized @(4,0)
GPGPU-Sim uArch: core:  6, cta: 3 initialized @(4,0)
GPGPU-Sim uArch: core:  7, cta: 3 initialized @(4,0)
GPGPU-Sim uArch: core:  8, cta: 3 initialized @(4,0)
GPGPU-Sim uArch: core:  9, cta: 3 initialized @(4,0)
GPGPU-Sim uArch: core: 10, cta: 3 initialized @(4,0)
GPGPU-Sim uArch: core: 11, cta: 3 initialized @(4,0)
GPGPU-Sim uArch: core: 12, cta: 3 initialized @(4,0)
GPGPU-Sim uArch: core: 13, cta: 3 initialized @(4,0)
GPGPU-Sim uArch: core: 14, cta: 3 initialized @(4,0)
GPGPU-Sim uArch: core:  0, cta: 3 initialized @(4,0)
GPGPU-Sim uArch: core:  1, cta: 4 initialized @(5,0)
GPGPU-Sim uArch: core:  2, cta: 4 initialized @(5,0)
GPGPU-Sim uArch: core:  3, cta: 4 initialized @(5,0)
GPGPU-Sim uArch: core:  4, cta: 4 initialized @(5,0)
GPGPU-Sim uArch: core:  5, cta: 4 initialized @(5,0)
GPGPU-Sim uArch: core:  6, cta: 4 initialized @(5,0)
GPGPU-Sim uArch: core:  7, cta: 4 initialized @(5,0)
GPGPU-Sim uArch: core:  8, cta: 4 initialized @(5,0)
GPGPU-Sim uArch: core:  9, cta: 4 initialized @(5,0)
GPGPU-Sim uArch: core: 10, cta: 4 initialized @(5,0)
GPGPU-Sim uArch: core: 11, cta: 4 initialized @(5,0)
GPGPU-Sim uArch: core: 12, cta: 4 initialized @(5,0)
GPGPU-Sim uArch: core: 13, cta: 4 initialized @(5,0)
GPGPU-Sim uArch: core: 14, cta: 4 initialized @(5,0)
GPGPU-Sim uArch: core:  0, cta: 4 initialized @(5,0)
GPGPU-Sim uArch: core:  1, cta: 5 initialized @(6,0)
GPGPU-Sim uArch: core:  2, cta: 5 initialized @(6,0)
GPGPU-Sim uArch: core:  3, cta: 5 initialized @(6,0)
GPGPU-Sim uArch: core:  4, cta: 5 initialized @(6,0)
GPGPU-Sim uArch: core:  5, cta: 5 initialized @(6,0)
GPGPU-Sim uArch: core:  6, cta: 5 initialized @(6,0)
GPGPU-Sim uArch: core:  7, cta: 5 initialized @(6,0)
GPGPU-Sim uArch: core:  8, cta: 5 initialized @(6,0)
GPGPU-Sim uArch: core:  9, cta: 5 initialized @(6,0)
GPGPU-Sim uArch: core: 10, cta: 5 initialized @(6,0)
GPGPU-Sim uArch: core: 11, cta: 5 initialized @(6,0)
GPGPU-Sim uArch: core: 12, cta: 5 initialized @(6,0)
GPGPU-Sim uArch: core: 13, cta: 5 initialized @(6,0)
GPGPU-Sim uArch: core: 14, cta: 5 initialized @(6,0)
GPGPU-Sim uArch: core:  0, cta: 5 initialized @(6,0)
GPGPU-Sim uArch: core:  1, cta: 6 initialized @(7,0)
GPGPU-Sim uArch: core:  2, cta: 6 initialized @(7,0)
GPGPU-Sim uArch: core:  3, cta: 6 initialized @(7,0)
GPGPU-Sim uArch: core:  4, cta: 6 initialized @(7,0)
GPGPU-Sim uArch: core:  5, cta: 6 initialized @(7,0)
GPGPU-Sim uArch: core:  6, cta: 6 initialized @(7,0)
GPGPU-Sim uArch: core:  7, cta: 6 initialized @(7,0)
GPGPU-Sim uArch: core:  8, cta: 6 initialized @(7,0)
GPGPU-Sim uArch: core:  9, cta: 6 initialized @(7,0)
GPGPU-Sim uArch: core: 10, cta: 6 initialized @(7,0)
GPGPU-Sim uArch: core: 11, cta: 6 initialized @(7,0)
GPGPU-Sim uArch: core: 12, cta: 6 initialized @(7,0)
GPGPU-Sim uArch: core: 13, cta: 6 initialized @(7,0)
GPGPU-Sim uArch: core: 14, cta: 6 initialized @(7,0)
GPGPU-Sim uArch: core:  0, cta: 6 initialized @(7,0)
GPGPU-Sim uArch: core:  1, cta: 7 initialized @(8,0)
GPGPU-Sim uArch: core:  2, cta: 7 initialized @(8,0)
GPGPU-Sim uArch: core:  3, cta: 7 initialized @(8,0)
GPGPU-Sim uArch: core:  4, cta: 7 initialized @(8,0)
GPGPU-Sim uArch: core:  5, cta: 7 initialized @(8,0)
GPGPU-Sim uArch: core:  6, cta: 7 initialized @(8,0)
GPGPU-Sim uArch: core:  7, cta: 7 initialized @(8,0)
GPGPU-Sim uArch: core:  8, cta: 7 initialized @(8,0)
GPGPU-Sim uArch: core:  9, cta: 7 initialized @(8,0)
GPGPU-Sim uArch: core: 10, cta: 7 initialized @(8,0)
GPGPU-Sim uArch: core: 11, cta: 7 initialized @(8,0)
GPGPU-Sim uArch: core: 12, cta: 7 initialized @(8,0)
GPGPU-Sim uArch: core: 13, cta: 7 initialized @(8,0)
GPGPU-Sim uArch: core: 14, cta: 7 initialized @(8,0)
GPGPU-Sim uArch: core:  0, cta: 7 initialized @(8,0)
GPGPU-Sim PTX: 100000 instructions simulated : ctaid=(111,0,0) tid=(63,0,0)
GPGPU-Sim uArch: cycles simulated: 500  inst.: 92160 (ipc=184.3) sim_rate=46080 (inst/sec) elapsed = 0:0:00:02 / Tue Apr 16 16:45:35 2019
GPGPU-Sim PTX: 200000 instructions simulated : ctaid=(42,0,0) tid=(127,0,0)
GPGPU-Sim PTX: 300000 instructions simulated : ctaid=(52,0,0) tid=(95,0,0)
GPGPU-Sim PTX: 400000 instructions simulated : ctaid=(61,0,0) tid=(127,0,0)
GPGPU-Sim uArch: cycles simulated: 1500  inst.: 424320 (ipc=282.9) sim_rate=141440 (inst/sec) elapsed = 0:0:00:03 / Tue Apr 16 16:45:36 2019
GPGPU-Sim PTX: 500000 instructions simulated : ctaid=(25,0,0) tid=(95,0,0)
GPGPU-Sim PTX: 600000 instructions simulated : ctaid=(5,0,0) tid=(31,0,0)
GPGPU-Sim PTX: 700000 instructions simulated : ctaid=(29,0,0) tid=(63,0,0)
GPGPU-Sim uArch: cycles simulated: 3000  inst.: 732416 (ipc=244.1) sim_rate=183104 (inst/sec) elapsed = 0:0:00:04 / Tue Apr 16 16:45:37 2019
GPGPU-Sim PTX: 800000 instructions simulated : ctaid=(14,0,0) tid=(63,0,0)
GPGPU-Sim PTX: 900000 instructions simulated : ctaid=(66,0,0) tid=(127,0,0)
GPGPU-Sim PTX: 1000000 instructions simulated : ctaid=(33,0,0) tid=(63,0,0)
GPGPU-Sim uArch: cycles simulated: 3500  inst.: 1039552 (ipc=297.0) sim_rate=207910 (inst/sec) elapsed = 0:0:00:05 / Tue Apr 16 16:45:38 2019
GPGPU-Sim PTX: 1100000 instructions simulated : ctaid=(41,0,0) tid=(63,0,0)
GPGPU-Sim PTX: 1200000 instructions simulated : ctaid=(114,0,0) tid=(127,0,0)
GPGPU-Sim PTX: 1300000 instructions simulated : ctaid=(109,0,0) tid=(31,0,0)
GPGPU-Sim PTX: 1400000 instructions simulated : ctaid=(77,0,0) tid=(95,0,0)
GPGPU-Sim PTX: 1500000 instructions simulated : ctaid=(71,0,0) tid=(127,0,0)
GPGPU-Sim uArch: cycles simulated: 4500  inst.: 1502560 (ipc=333.9) sim_rate=250426 (inst/sec) elapsed = 0:0:00:06 / Tue Apr 16 16:45:39 2019
GPGPU-Sim PTX: 1600000 instructions simulated : ctaid=(18,0,0) tid=(95,0,0)
GPGPU-Sim PTX: 1700000 instructions simulated : ctaid=(81,0,0) tid=(63,0,0)
GPGPU-Sim PTX: 1800000 instructions simulated : ctaid=(49,0,0) tid=(31,0,0)
GPGPU-Sim uArch: cycles simulated: 5500  inst.: 1824576 (ipc=331.7) sim_rate=260653 (inst/sec) elapsed = 0:0:00:07 / Tue Apr 16 16:45:40 2019
GPGPU-Sim PTX: 1900000 instructions simulated : ctaid=(42,0,0) tid=(31,0,0)
GPGPU-Sim PTX: 2000000 instructions simulated : ctaid=(29,0,0) tid=(127,0,0)
GPGPU-Sim PTX: 2100000 instructions simulated : ctaid=(12,0,0) tid=(63,0,0)
GPGPU-Sim uArch: cycles simulated: 6500  inst.: 2133632 (ipc=328.3) sim_rate=266704 (inst/sec) elapsed = 0:0:00:08 / Tue Apr 16 16:45:41 2019
GPGPU-Sim PTX: 2200000 instructions simulated : ctaid=(9,0,0) tid=(127,0,0)
GPGPU-Sim PTX: 2300000 instructions simulated : ctaid=(36,0,0) tid=(63,0,0)
GPGPU-Sim uArch: cycles simulated: 7000  inst.: 2294368 (ipc=327.8) sim_rate=254929 (inst/sec) elapsed = 0:0:00:09 / Tue Apr 16 16:45:42 2019
GPGPU-Sim PTX: 2400000 instructions simulated : ctaid=(26,0,0) tid=(127,0,0)
GPGPU-Sim PTX: 2500000 instructions simulated : ctaid=(28,0,0) tid=(63,0,0)
GPGPU-Sim PTX: 2600000 instructions simulated : ctaid=(19,0,0) tid=(95,0,0)
GPGPU-Sim uArch: cycles simulated: 8000  inst.: 2597504 (ipc=324.7) sim_rate=259750 (inst/sec) elapsed = 0:0:00:10 / Tue Apr 16 16:45:43 2019
GPGPU-Sim PTX: 2700000 instructions simulated : ctaid=(30,0,0) tid=(63,0,0)
GPGPU-Sim PTX: 2800000 instructions simulated : ctaid=(13,0,0) tid=(127,0,0)
GPGPU-Sim PTX: 2900000 instructions simulated : ctaid=(24,0,0) tid=(31,0,0)
GPGPU-Sim uArch: cycles simulated: 9000  inst.: 2900320 (ipc=322.3) sim_rate=263665 (inst/sec) elapsed = 0:0:00:11 / Tue Apr 16 16:45:44 2019
GPGPU-Sim PTX: 3000000 instructions simulated : ctaid=(1,0,0) tid=(63,0,0)
GPGPU-Sim PTX: 3100000 instructions simulated : ctaid=(33,0,0) tid=(95,0,0)
GPGPU-Sim PTX: 3200000 instructions simulated : ctaid=(13,0,0) tid=(63,0,0)
GPGPU-Sim uArch: cycles simulated: 10000  inst.: 3228576 (ipc=322.9) sim_rate=269048 (inst/sec) elapsed = 0:0:00:12 / Tue Apr 16 16:45:45 2019
GPGPU-Sim PTX: 3300000 instructions simulated : ctaid=(40,0,0) tid=(127,0,0)
GPGPU-Sim PTX: 3400000 instructions simulated : ctaid=(4,0,0) tid=(31,0,0)
GPGPU-Sim PTX: 3500000 instructions simulated : ctaid=(37,0,0) tid=(31,0,0)
GPGPU-Sim uArch: cycles simulated: 11000  inst.: 3515808 (ipc=319.6) sim_rate=270446 (inst/sec) elapsed = 0:0:00:13 / Tue Apr 16 16:45:46 2019
GPGPU-Sim PTX: 3600000 instructions simulated : ctaid=(27,0,0) tid=(95,0,0)
GPGPU-Sim uArch: cycles simulated: 11500  inst.: 3661536 (ipc=318.4) sim_rate=261538 (inst/sec) elapsed = 0:0:00:14 / Tue Apr 16 16:45:47 2019
GPGPU-Sim PTX: 3700000 instructions simulated : ctaid=(17,0,0) tid=(127,0,0)
GPGPU-Sim PTX: 3800000 instructions simulated : ctaid=(24,0,0) tid=(31,0,0)
GPGPU-Sim PTX: 3900000 instructions simulated : ctaid=(43,0,0) tid=(127,0,0)
GPGPU-Sim uArch: cycles simulated: 12500  inst.: 3925312 (ipc=314.0) sim_rate=261687 (inst/sec) elapsed = 0:0:00:15 / Tue Apr 16 16:45:48 2019
GPGPU-Sim PTX: 4000000 instructions simulated : ctaid=(0,0,0) tid=(31,0,0)
GPGPU-Sim PTX: 4100000 instructions simulated : ctaid=(56,0,0) tid=(95,0,0)
GPGPU-Sim PTX: 4200000 instructions simulated : ctaid=(28,0,0) tid=(95,0,0)
GPGPU-Sim uArch: cycles simulated: 13500  inst.: 4221280 (ipc=312.7) sim_rate=263830 (inst/sec) elapsed = 0:0:00:16 / Tue Apr 16 16:45:49 2019
GPGPU-Sim PTX: 4300000 instructions simulated : ctaid=(32,0,0) tid=(31,0,0)
GPGPU-Sim PTX: 4400000 instructions simulated : ctaid=(58,0,0) tid=(63,0,0)
GPGPU-Sim PTX: 4500000 instructions simulated : ctaid=(7,0,0) tid=(95,0,0)
GPGPU-Sim uArch: cycles simulated: 14500  inst.: 4525120 (ipc=312.1) sim_rate=266183 (inst/sec) elapsed = 0:0:00:17 / Tue Apr 16 16:45:50 2019
GPGPU-Sim PTX: 4600000 instructions simulated : ctaid=(10,0,0) tid=(63,0,0)
GPGPU-Sim PTX: 4700000 instructions simulated : ctaid=(24,0,0) tid=(63,0,0)
GPGPU-Sim PTX: 4800000 instructions simulated : ctaid=(17,0,0) tid=(31,0,0)
GPGPU-Sim uArch: cycles simulated: 15500  inst.: 4865376 (ipc=313.9) sim_rate=270298 (inst/sec) elapsed = 0:0:00:18 / Tue Apr 16 16:45:51 2019
GPGPU-Sim PTX: 4900000 instructions simulated : ctaid=(10,0,0) tid=(31,0,0)
GPGPU-Sim PTX: 5000000 instructions simulated : ctaid=(40,0,0) tid=(31,0,0)
GPGPU-Sim uArch: cycles simulated: 16000  inst.: 5034016 (ipc=314.6) sim_rate=264948 (inst/sec) elapsed = 0:0:00:19 / Tue Apr 16 16:45:52 2019
GPGPU-Sim PTX: 5100000 instructions simulated : ctaid=(6,0,0) tid=(63,0,0)
GPGPU-Sim PTX: 5200000 instructions simulated : ctaid=(5,0,0) tid=(95,0,0)
GPGPU-Sim PTX: 5300000 instructions simulated : ctaid=(32,0,0) tid=(31,0,0)
GPGPU-Sim uArch: cycles simulated: 17000  inst.: 5318400 (ipc=312.8) sim_rate=265920 (inst/sec) elapsed = 0:0:00:20 / Tue Apr 16 16:45:53 2019
GPGPU-Sim PTX: 5400000 instructions simulated : ctaid=(2,0,0) tid=(95,0,0)
GPGPU-Sim PTX: 5500000 instructions simulated : ctaid=(45,0,0) tid=(31,0,0)
GPGPU-Sim PTX: 5600000 instructions simulated : ctaid=(9,0,0) tid=(95,0,0)
GPGPU-Sim uArch: cycles simulated: 18000  inst.: 5607168 (ipc=311.5) sim_rate=267008 (inst/sec) elapsed = 0:0:00:21 / Tue Apr 16 16:45:54 2019
GPGPU-Sim PTX: 5700000 instructions simulated : ctaid=(29,0,0) tid=(95,0,0)
GPGPU-Sim PTX: 5800000 instructions simulated : ctaid=(7,0,0) tid=(127,0,0)
GPGPU-Sim PTX: 5900000 instructions simulated : ctaid=(32,0,0) tid=(127,0,0)
GPGPU-Sim uArch: cycles simulated: 19000  inst.: 5899168 (ipc=310.5) sim_rate=268144 (inst/sec) elapsed = 0:0:00:22 / Tue Apr 16 16:45:55 2019
GPGPU-Sim PTX: 6000000 instructions simulated : ctaid=(7,0,0) tid=(31,0,0)
GPGPU-Sim PTX: 6100000 instructions simulated : ctaid=(44,0,0) tid=(31,0,0)
GPGPU-Sim uArch: cycles simulated: 20000  inst.: 6163040 (ipc=308.2) sim_rate=267958 (inst/sec) elapsed = 0:0:00:23 / Tue Apr 16 16:45:56 2019
GPGPU-Sim PTX: 6200000 instructions simulated : ctaid=(29,0,0) tid=(31,0,0)
GPGPU-Sim PTX: 6300000 instructions simulated : ctaid=(27,0,0) tid=(127,0,0)
GPGPU-Sim PTX: 6400000 instructions simulated : ctaid=(4,0,0) tid=(63,0,0)
GPGPU-Sim uArch: cycles simulated: 21000  inst.: 6445248 (ipc=306.9) sim_rate=268552 (inst/sec) elapsed = 0:0:00:24 / Tue Apr 16 16:45:57 2019
GPGPU-Sim PTX: 6500000 instructions simulated : ctaid=(10,0,0) tid=(31,0,0)
GPGPU-Sim PTX: 6600000 instructions simulated : ctaid=(12,0,0) tid=(63,0,0)
GPGPU-Sim PTX: 6700000 instructions simulated : ctaid=(15,0,0) tid=(127,0,0)
GPGPU-Sim uArch: cycles simulated: 22000  inst.: 6737376 (ipc=306.2) sim_rate=269495 (inst/sec) elapsed = 0:0:00:25 / Tue Apr 16 16:45:58 2019
GPGPU-Sim PTX: 6800000 instructions simulated : ctaid=(14,0,0) tid=(127,0,0)
GPGPU-Sim PTX: 6900000 instructions simulated : ctaid=(57,0,0) tid=(31,0,0)
GPGPU-Sim PTX: 7000000 instructions simulated : ctaid=(59,0,0) tid=(31,0,0)
GPGPU-Sim uArch: cycles simulated: 23000  inst.: 7060864 (ipc=307.0) sim_rate=271571 (inst/sec) elapsed = 0:0:00:26 / Tue Apr 16 16:45:59 2019
GPGPU-Sim PTX: 7100000 instructions simulated : ctaid=(8,0,0) tid=(63,0,0)
GPGPU-Sim PTX: 7200000 instructions simulated : ctaid=(45,0,0) tid=(31,0,0)
GPGPU-Sim PTX: 7300000 instructions simulated : ctaid=(14,0,0) tid=(95,0,0)
GPGPU-Sim uArch: cycles simulated: 24000  inst.: 7351296 (ipc=306.3) sim_rate=272270 (inst/sec) elapsed = 0:0:00:27 / Tue Apr 16 16:46:00 2019
GPGPU-Sim PTX: 7400000 instructions simulated : ctaid=(3,0,0) tid=(95,0,0)
GPGPU-Sim PTX: 7500000 instructions simulated : ctaid=(7,0,0) tid=(63,0,0)
GPGPU-Sim PTX: 7600000 instructions simulated : ctaid=(32,0,0) tid=(31,0,0)
GPGPU-Sim uArch: cycles simulated: 25000  inst.: 7634912 (ipc=305.4) sim_rate=272675 (inst/sec) elapsed = 0:0:00:28 / Tue Apr 16 16:46:01 2019
GPGPU-Sim PTX: 7700000 instructions simulated : ctaid=(3,0,0) tid=(95,0,0)
GPGPU-Sim PTX: 7800000 instructions simulated : ctaid=(8,0,0) tid=(95,0,0)
GPGPU-Sim uArch: cycles simulated: 25500  inst.: 7799648 (ipc=305.9) sim_rate=268953 (inst/sec) elapsed = 0:0:00:29 / Tue Apr 16 16:46:02 2019
GPGPU-Sim PTX: 7900000 instructions simulated : ctaid=(15,0,0) tid=(95,0,0)
GPGPU-Sim PTX: 8000000 instructions simulated : ctaid=(41,0,0) tid=(63,0,0)
GPGPU-Sim uArch: cycles simulated: 26500  inst.: 8065536 (ipc=304.4) sim_rate=268851 (inst/sec) elapsed = 0:0:00:30 / Tue Apr 16 16:46:03 2019
GPGPU-Sim PTX: 8100000 instructions simulated : ctaid=(28,0,0) tid=(31,0,0)
GPGPU-Sim PTX: 8200000 instructions simulated : ctaid=(8,0,0) tid=(63,0,0)
GPGPU-Sim PTX: 8300000 instructions simulated : ctaid=(24,0,0) tid=(31,0,0)
GPGPU-Sim uArch: cycles simulated: 27500  inst.: 8357920 (ipc=303.9) sim_rate=269610 (inst/sec) elapsed = 0:0:00:31 / Tue Apr 16 16:46:04 2019
GPGPU-Sim PTX: 8400000 instructions simulated : ctaid=(11,0,0) tid=(63,0,0)
GPGPU-Sim PTX: 8500000 instructions simulated : ctaid=(4,0,0) tid=(31,0,0)
GPGPU-Sim PTX: 8600000 instructions simulated : ctaid=(20,0,0) tid=(63,0,0)
GPGPU-Sim uArch: cycles simulated: 28500  inst.: 8637152 (ipc=303.1) sim_rate=269911 (inst/sec) elapsed = 0:0:00:32 / Tue Apr 16 16:46:05 2019
GPGPU-Sim PTX: 8700000 instructions simulated : ctaid=(4,0,0) tid=(127,0,0)
GPGPU-Sim PTX: 8800000 instructions simulated : ctaid=(32,0,0) tid=(63,0,0)
GPGPU-Sim PTX: 8900000 instructions simulated : ctaid=(37,0,0) tid=(95,0,0)
GPGPU-Sim uArch: cycles simulated: 29500  inst.: 8944512 (ipc=303.2) sim_rate=271045 (inst/sec) elapsed = 0:0:00:33 / Tue Apr 16 16:46:06 2019
GPGPU-Sim PTX: 9000000 instructions simulated : ctaid=(14,0,0) tid=(31,0,0)
GPGPU-Sim PTX: 9100000 instructions simulated : ctaid=(58,0,0) tid=(63,0,0)
GPGPU-Sim PTX: 9200000 instructions simulated : ctaid=(53,0,0) tid=(95,0,0)
GPGPU-Sim uArch: cycles simulated: 30500  inst.: 9261152 (ipc=303.6) sim_rate=272386 (inst/sec) elapsed = 0:0:00:34 / Tue Apr 16 16:46:07 2019
GPGPU-Sim PTX: 9300000 instructions simulated : ctaid=(44,0,0) tid=(63,0,0)
GPGPU-Sim PTX: 9400000 instructions simulated : ctaid=(25,0,0) tid=(95,0,0)
GPGPU-Sim PTX: 9500000 instructions simulated : ctaid=(44,0,0) tid=(95,0,0)
GPGPU-Sim uArch: cycles simulated: 31500  inst.: 9537376 (ipc=302.8) sim_rate=272496 (inst/sec) elapsed = 0:0:00:35 / Tue Apr 16 16:46:08 2019
GPGPU-Sim PTX: 9600000 instructions simulated : ctaid=(14,0,0) tid=(31,0,0)
GPGPU-Sim PTX: 9700000 instructions simulated : ctaid=(28,0,0) tid=(31,0,0)
GPGPU-Sim PTX: 9800000 instructions simulated : ctaid=(30,0,0) tid=(31,0,0)
GPGPU-Sim uArch: cycles simulated: 32500  inst.: 9805888 (ipc=301.7) sim_rate=272385 (inst/sec) elapsed = 0:0:00:36 / Tue Apr 16 16:46:09 2019
GPGPU-Sim PTX: 9900000 instructions simulated : ctaid=(12,0,0) tid=(31,0,0)
GPGPU-Sim PTX: 10000000 instructions simulated : ctaid=(36,0,0) tid=(95,0,0)
GPGPU-Sim uArch: cycles simulated: 33500  inst.: 10056608 (ipc=300.2) sim_rate=271800 (inst/sec) elapsed = 0:0:00:37 / Tue Apr 16 16:46:10 2019
GPGPU-Sim PTX: 10100000 instructions simulated : ctaid=(20,0,0) tid=(95,0,0)
GPGPU-Sim PTX: 10200000 instructions simulated : ctaid=(59,0,0) tid=(95,0,0)
GPGPU-Sim PTX: 10300000 instructions simulated : ctaid=(38,0,0) tid=(127,0,0)
GPGPU-Sim uArch: cycles simulated: 34500  inst.: 10351904 (ipc=300.1) sim_rate=272418 (inst/sec) elapsed = 0:0:00:38 / Tue Apr 16 16:46:11 2019
GPGPU-Sim PTX: 10400000 instructions simulated : ctaid=(28,0,0) tid=(63,0,0)
GPGPU-Sim PTX: 10500000 instructions simulated : ctaid=(49,0,0) tid=(127,0,0)
GPGPU-Sim PTX: 10600000 instructions simulated : ctaid=(3,0,0) tid=(95,0,0)
GPGPU-Sim uArch: cycles simulated: 35500  inst.: 10664160 (ipc=300.4) sim_rate=273440 (inst/sec) elapsed = 0:0:00:39 / Tue Apr 16 16:46:12 2019
GPGPU-Sim PTX: 10700000 instructions simulated : ctaid=(8,0,0) tid=(31,0,0)
GPGPU-Sim PTX: 10800000 instructions simulated : ctaid=(7,0,0) tid=(31,0,0)
GPGPU-Sim PTX: 10900000 instructions simulated : ctaid=(6,0,0) tid=(95,0,0)
GPGPU-Sim uArch: cycles simulated: 36500  inst.: 10929056 (ipc=299.4) sim_rate=273226 (inst/sec) elapsed = 0:0:00:40 / Tue Apr 16 16:46:13 2019
GPGPU-Sim PTX: 11000000 instructions simulated : ctaid=(9,0,0) tid=(63,0,0)
GPGPU-Sim PTX: 11100000 instructions simulated : ctaid=(28,0,0) tid=(31,0,0)
GPGPU-Sim PTX: 11200000 instructions simulated : ctaid=(12,0,0) tid=(95,0,0)
GPGPU-Sim uArch: cycles simulated: 37500  inst.: 11233792 (ipc=299.6) sim_rate=273994 (inst/sec) elapsed = 0:0:00:41 / Tue Apr 16 16:46:14 2019
GPGPU-Sim PTX: 11300000 instructions simulated : ctaid=(30,0,0) tid=(127,0,0)
GPGPU-Sim PTX: 11400000 instructions simulated : ctaid=(32,0,0) tid=(95,0,0)
GPGPU-Sim PTX: 11500000 instructions simulated : ctaid=(8,0,0) tid=(95,0,0)
GPGPU-Sim uArch: cycles simulated: 38500  inst.: 11520800 (ipc=299.2) sim_rate=274304 (inst/sec) elapsed = 0:0:00:42 / Tue Apr 16 16:46:15 2019
GPGPU-Sim PTX: 11600000 instructions simulated : ctaid=(21,0,0) tid=(31,0,0)
GPGPU-Sim PTX: 11700000 instructions simulated : ctaid=(54,0,0) tid=(95,0,0)
GPGPU-Sim PTX: 11800000 instructions simulated : ctaid=(4,0,0) tid=(127,0,0)
GPGPU-Sim uArch: cycles simulated: 39500  inst.: 11825632 (ipc=299.4) sim_rate=275014 (inst/sec) elapsed = 0:0:00:43 / Tue Apr 16 16:46:16 2019
GPGPU-Sim PTX: 11900000 instructions simulated : ctaid=(10,0,0) tid=(95,0,0)
GPGPU-Sim PTX: 12000000 instructions simulated : ctaid=(60,0,0) tid=(31,0,0)
GPGPU-Sim uArch: cycles simulated: 40000  inst.: 11982592 (ipc=299.6) sim_rate=272331 (inst/sec) elapsed = 0:0:00:44 / Tue Apr 16 16:46:17 2019
GPGPU-Sim PTX: 12100000 instructions simulated : ctaid=(1,0,0) tid=(63,0,0)
GPGPU-Sim PTX: 12200000 instructions simulated : ctaid=(23,0,0) tid=(31,0,0)
GPGPU-Sim uArch: cycles simulated: 41000  inst.: 12266240 (ipc=299.2) sim_rate=272583 (inst/sec) elapsed = 0:0:00:45 / Tue Apr 16 16:46:18 2019
GPGPU-Sim PTX: 12300000 instructions simulated : ctaid=(8,0,0) tid=(63,0,0)
GPGPU-Sim PTX: 12400000 instructions simulated : ctaid=(16,0,0) tid=(127,0,0)
GPGPU-Sim PTX: 12500000 instructions simulated : ctaid=(12,0,0) tid=(63,0,0)
GPGPU-Sim uArch: cycles simulated: 42000  inst.: 12558656 (ipc=299.0) sim_rate=273014 (inst/sec) elapsed = 0:0:00:46 / Tue Apr 16 16:46:19 2019
GPGPU-Sim PTX: 12600000 instructions simulated : ctaid=(7,0,0) tid=(127,0,0)
GPGPU-Sim PTX: 12700000 instructions simulated : ctaid=(17,0,0) tid=(95,0,0)
GPGPU-Sim PTX: 12800000 instructions simulated : ctaid=(41,0,0) tid=(31,0,0)
GPGPU-Sim uArch: cycles simulated: 43000  inst.: 12855360 (ipc=299.0) sim_rate=273518 (inst/sec) elapsed = 0:0:00:47 / Tue Apr 16 16:46:20 2019
GPGPU-Sim PTX: 12900000 instructions simulated : ctaid=(42,0,0) tid=(127,0,0)
GPGPU-Sim PTX: 13000000 instructions simulated : ctaid=(0,0,0) tid=(127,0,0)
GPGPU-Sim PTX: 13100000 instructions simulated : ctaid=(13,0,0) tid=(31,0,0)
GPGPU-Sim uArch: cycles simulated: 44000  inst.: 13123232 (ipc=298.3) sim_rate=273400 (inst/sec) elapsed = 0:0:00:48 / Tue Apr 16 16:46:21 2019
GPGPU-Sim PTX: 13200000 instructions simulated : ctaid=(40,0,0) tid=(31,0,0)
GPGPU-Sim PTX: 13300000 instructions simulated : ctaid=(9,0,0) tid=(63,0,0)
GPGPU-Sim PTX: 13400000 instructions simulated : ctaid=(6,0,0) tid=(31,0,0)
GPGPU-Sim uArch: cycles simulated: 45000  inst.: 13437120 (ipc=298.6) sim_rate=274226 (inst/sec) elapsed = 0:0:00:49 / Tue Apr 16 16:46:22 2019
GPGPU-Sim PTX: 13500000 instructions simulated : ctaid=(9,0,0) tid=(63,0,0)
GPGPU-Sim PTX: 13600000 instructions simulated : ctaid=(24,0,0) tid=(127,0,0)
GPGPU-Sim PTX: 13700000 instructions simulated : ctaid=(19,0,0) tid=(127,0,0)
GPGPU-Sim uArch: cycles simulated: 46000  inst.: 13738208 (ipc=298.7) sim_rate=274764 (inst/sec) elapsed = 0:0:00:50 / Tue Apr 16 16:46:23 2019
GPGPU-Sim PTX: 13800000 instructions simulated : ctaid=(41,0,0) tid=(95,0,0)
GPGPU-Sim PTX: 13900000 instructions simulated : ctaid=(36,0,0) tid=(127,0,0)
GPGPU-Sim PTX: 14000000 instructions simulated : ctaid=(23,0,0) tid=(31,0,0)
GPGPU-Sim uArch: cycles simulated: 47000  inst.: 14058880 (ipc=299.1) sim_rate=275664 (inst/sec) elapsed = 0:0:00:51 / Tue Apr 16 16:46:24 2019
GPGPU-Sim PTX: 14100000 instructions simulated : ctaid=(23,0,0) tid=(31,0,0)
GPGPU-Sim PTX: 14200000 instructions simulated : ctaid=(20,0,0) tid=(95,0,0)
GPGPU-Sim PTX: 14300000 instructions simulated : ctaid=(9,0,0) tid=(31,0,0)
GPGPU-Sim uArch: cycles simulated: 48000  inst.: 14321984 (ipc=298.4) sim_rate=275422 (inst/sec) elapsed = 0:0:00:52 / Tue Apr 16 16:46:25 2019
GPGPU-Sim PTX: 14400000 instructions simulated : ctaid=(29,0,0) tid=(31,0,0)
GPGPU-Sim PTX: 14500000 instructions simulated : ctaid=(15,0,0) tid=(31,0,0)
GPGPU-Sim PTX: 14600000 instructions simulated : ctaid=(34,0,0) tid=(31,0,0)
GPGPU-Sim uArch: cycles simulated: 49000  inst.: 14599456 (ipc=297.9) sim_rate=275461 (inst/sec) elapsed = 0:0:00:53 / Tue Apr 16 16:46:26 2019
GPGPU-Sim PTX: 14700000 instructions simulated : ctaid=(7,0,0) tid=(31,0,0)
GPGPU-Sim PTX: 14800000 instructions simulated : ctaid=(10,0,0) tid=(63,0,0)
GPGPU-Sim PTX: 14900000 instructions simulated : ctaid=(51,0,0) tid=(63,0,0)
GPGPU-Sim uArch: cycles simulated: 50000  inst.: 14902240 (ipc=298.0) sim_rate=275967 (inst/sec) elapsed = 0:0:00:54 / Tue Apr 16 16:46:27 2019
GPGPU-Sim PTX: 15000000 instructions simulated : ctaid=(2,0,0) tid=(63,0,0)
GPGPU-Sim PTX: 15100000 instructions simulated : ctaid=(27,0,0) tid=(63,0,0)
GPGPU-Sim uArch: cycles simulated: 51000  inst.: 15173216 (ipc=297.5) sim_rate=275876 (inst/sec) elapsed = 0:0:00:55 / Tue Apr 16 16:46:28 2019
GPGPU-Sim PTX: 15200000 instructions simulated : ctaid=(29,0,0) tid=(63,0,0)
GPGPU-Sim PTX: 15300000 instructions simulated : ctaid=(14,0,0) tid=(31,0,0)
GPGPU-Sim PTX: 15400000 instructions simulated : ctaid=(43,0,0) tid=(95,0,0)
GPGPU-Sim PTX: 15500000 instructions simulated : ctaid=(4,0,0) tid=(31,0,0)
GPGPU-Sim uArch: cycles simulated: 52000  inst.: 15490784 (ipc=297.9) sim_rate=276621 (inst/sec) elapsed = 0:0:00:56 / Tue Apr 16 16:46:29 2019
GPGPU-Sim PTX: 15600000 instructions simulated : ctaid=(31,0,0) tid=(95,0,0)
GPGPU-Sim uArch: cycles simulated: 52500  inst.: 15652128 (ipc=298.1) sim_rate=274598 (inst/sec) elapsed = 0:0:00:57 / Tue Apr 16 16:46:30 2019
GPGPU-Sim PTX: 15700000 instructions simulated : ctaid=(52,0,0) tid=(63,0,0)
GPGPU-Sim PTX: 15800000 instructions simulated : ctaid=(50,0,0) tid=(63,0,0)
GPGPU-Sim PTX: 15900000 instructions simulated : ctaid=(37,0,0) tid=(63,0,0)
GPGPU-Sim uArch: cycles simulated: 53500  inst.: 15925856 (ipc=297.7) sim_rate=274583 (inst/sec) elapsed = 0:0:00:58 / Tue Apr 16 16:46:31 2019
GPGPU-Sim PTX: 16000000 instructions simulated : ctaid=(14,0,0) tid=(63,0,0)
GPGPU-Sim PTX: 16100000 instructions simulated : ctaid=(40,0,0) tid=(31,0,0)
GPGPU-Sim PTX: 16200000 instructions simulated : ctaid=(6,0,0) tid=(127,0,0)
GPGPU-Sim uArch: cycles simulated: 54500  inst.: 16221376 (ipc=297.6) sim_rate=274938 (inst/sec) elapsed = 0:0:00:59 / Tue Apr 16 16:46:32 2019
GPGPU-Sim PTX: 16300000 instructions simulated : ctaid=(25,0,0) tid=(127,0,0)
GPGPU-Sim PTX: 16400000 instructions simulated : ctaid=(21,0,0) tid=(63,0,0)
GPGPU-Sim PTX: 16500000 instructions simulated : ctaid=(1,0,0) tid=(63,0,0)
GPGPU-Sim uArch: cycles simulated: 55500  inst.: 16512768 (ipc=297.5) sim_rate=275212 (inst/sec) elapsed = 0:0:01:00 / Tue Apr 16 16:46:33 2019
GPGPU-Sim PTX: 16600000 instructions simulated : ctaid=(12,0,0) tid=(31,0,0)
GPGPU-Sim PTX: 16700000 instructions simulated : ctaid=(39,0,0) tid=(63,0,0)
GPGPU-Sim PTX: 16800000 instructions simulated : ctaid=(45,0,0) tid=(95,0,0)
GPGPU-Sim uArch: cycles simulated: 56500  inst.: 16800480 (ipc=297.4) sim_rate=275417 (inst/sec) elapsed = 0:0:01:01 / Tue Apr 16 16:46:34 2019
GPGPU-Sim PTX: 16900000 instructions simulated : ctaid=(34,0,0) tid=(95,0,0)
GPGPU-Sim PTX: 17000000 instructions simulated : ctaid=(16,0,0) tid=(31,0,0)
GPGPU-Sim PTX: 17100000 instructions simulated : ctaid=(34,0,0) tid=(63,0,0)
GPGPU-Sim uArch: cycles simulated: 57500  inst.: 17095904 (ipc=297.3) sim_rate=275740 (inst/sec) elapsed = 0:0:01:02 / Tue Apr 16 16:46:35 2019
GPGPU-Sim PTX: 17200000 instructions simulated : ctaid=(16,0,0) tid=(95,0,0)
GPGPU-Sim PTX: 17300000 instructions simulated : ctaid=(53,0,0) tid=(31,0,0)
GPGPU-Sim PTX: 17400000 instructions simulated : ctaid=(57,0,0) tid=(127,0,0)
GPGPU-Sim uArch: cycles simulated: 58500  inst.: 17408000 (ipc=297.6) sim_rate=276317 (inst/sec) elapsed = 0:0:01:03 / Tue Apr 16 16:46:36 2019
GPGPU-Sim PTX: 17500000 instructions simulated : ctaid=(29,0,0) tid=(63,0,0)
GPGPU-Sim PTX: 17600000 instructions simulated : ctaid=(38,0,0) tid=(95,0,0)
GPGPU-Sim PTX: 17700000 instructions simulated : ctaid=(26,0,0) tid=(31,0,0)
GPGPU-Sim uArch: cycles simulated: 59500  inst.: 17675712 (ipc=297.1) sim_rate=276183 (inst/sec) elapsed = 0:0:01:04 / Tue Apr 16 16:46:37 2019
GPGPU-Sim PTX: 17800000 instructions simulated : ctaid=(59,0,0) tid=(95,0,0)
GPGPU-Sim PTX: 17900000 instructions simulated : ctaid=(41,0,0) tid=(31,0,0)
GPGPU-Sim uArch: cycles simulated: 60500  inst.: 17957152 (ipc=296.8) sim_rate=276263 (inst/sec) elapsed = 0:0:01:05 / Tue Apr 16 16:46:38 2019
GPGPU-Sim PTX: 18000000 instructions simulated : ctaid=(58,0,0) tid=(127,0,0)
GPGPU-Sim PTX: 18100000 instructions simulated : ctaid=(26,0,0) tid=(127,0,0)
GPGPU-Sim PTX: 18200000 instructions simulated : ctaid=(39,0,0) tid=(31,0,0)
GPGPU-Sim uArch: cycles simulated: 61500  inst.: 18235040 (ipc=296.5) sim_rate=276288 (inst/sec) elapsed = 0:0:01:06 / Tue Apr 16 16:46:39 2019
GPGPU-Sim PTX: 18300000 instructions simulated : ctaid=(67,0,0) tid=(95,0,0)
GPGPU-Sim PTX: 18400000 instructions simulated : ctaid=(15,0,0) tid=(63,0,0)
GPGPU-Sim PTX: 18500000 instructions simulated : ctaid=(32,0,0) tid=(63,0,0)
GPGPU-Sim uArch: cycles simulated: 62500  inst.: 18540032 (ipc=296.6) sim_rate=276716 (inst/sec) elapsed = 0:0:01:07 / Tue Apr 16 16:46:40 2019
GPGPU-Sim PTX: 18600000 instructions simulated : ctaid=(77,0,0) tid=(31,0,0)
GPGPU-Sim uArch: Shader 4 finished CTA #0 (62767,0), 7 CTAs running
GPGPU-Sim uArch: core:  4, cta: 0 initialized @(62768,0)
GPGPU-Sim uArch: Shader 9 finished CTA #0 (62820,0), 7 CTAs running
GPGPU-Sim uArch: core:  9, cta: 0 initialized @(62821,0)
GPGPU-Sim PTX: 18700000 instructions simulated : ctaid=(36,0,0) tid=(95,0,0)
GPGPU-Sim PTX: 18800000 instructions simulated : ctaid=(10,0,0) tid=(127,0,0)
GPGPU-Sim uArch: Shader 13 finished CTA #0 (63443,0), 7 CTAs running
GPGPU-Sim uArch: core: 13, cta: 0 initialized @(63444,0)
GPGPU-Sim uArch: cycles simulated: 63500  inst.: 18869120 (ipc=297.2) sim_rate=277487 (inst/sec) elapsed = 0:0:01:08 / Tue Apr 16 16:46:41 2019
GPGPU-Sim PTX: 18900000 instructions simulated : ctaid=(55,0,0) tid=(31,0,0)
GPGPU-Sim PTX: 19000000 instructions simulated : ctaid=(30,0,0) tid=(31,0,0)
GPGPU-Sim PTX: 19100000 instructions simulated : ctaid=(55,0,0) tid=(95,0,0)
GPGPU-Sim uArch: Shader 0 finished CTA #0 (64315,0), 7 CTAs running
GPGPU-Sim uArch: core:  0, cta: 0 initialized @(64316,0)
GPGPU-Sim uArch: Shader 1 finished CTA #0 (64363,0), 7 CTAs running
GPGPU-Sim uArch: core:  1, cta: 0 initialized @(64364,0)
GPGPU-Sim uArch: cycles simulated: 64500  inst.: 19161440 (ipc=297.1) sim_rate=277702 (inst/sec) elapsed = 0:0:01:09 / Tue Apr 16 16:46:42 2019
GPGPU-Sim PTX: 19200000 instructions simulated : ctaid=(21,0,0) tid=(63,0,0)
GPGPU-Sim PTX: 19300000 instructions simulated : ctaid=(24,0,0) tid=(95,0,0)
GPGPU-Sim uArch: Shader 3 finished CTA #0 (65021,0), 7 CTAs running
GPGPU-Sim uArch: core:  3, cta: 0 initialized @(65022,0)
GPGPU-Sim uArch: Shader 8 finished CTA #0 (65256,0), 7 CTAs running
GPGPU-Sim uArch: core:  8, cta: 0 initialized @(65257,0)
GPGPU-Sim uArch: Shader 10 finished CTA #0 (65288,0), 7 CTAs running
GPGPU-Sim uArch: core: 10, cta: 0 initialized @(65289,0)
GPGPU-Sim PTX: 19400000 instructions simulated : ctaid=(17,0,0) tid=(127,0,0)
GPGPU-Sim uArch: cycles simulated: 65500  inst.: 19420864 (ipc=296.5) sim_rate=277440 (inst/sec) elapsed = 0:0:01:10 / Tue Apr 16 16:46:43 2019
GPGPU-Sim PTX: 19500000 instructions simulated : ctaid=(38,0,0) tid=(127,0,0)
GPGPU-Sim PTX: 19600000 instructions simulated : ctaid=(50,0,0) tid=(31,0,0)
GPGPU-Sim uArch: cycles simulated: 66000  inst.: 19579680 (ipc=296.7) sim_rate=275770 (inst/sec) elapsed = 0:0:01:11 / Tue Apr 16 16:46:44 2019
GPGPU-Sim PTX: 19700000 instructions simulated : ctaid=(41,0,0) tid=(63,0,0)
GPGPU-Sim PTX: 19800000 instructions simulated : ctaid=(87,0,0) tid=(95,0,0)
GPGPU-Sim PTX: 19900000 instructions simulated : ctaid=(38,0,0) tid=(63,0,0)
GPGPU-Sim uArch: cycles simulated: 67000  inst.: 19875936 (ipc=296.7) sim_rate=276054 (inst/sec) elapsed = 0:0:01:12 / Tue Apr 16 16:46:45 2019
GPGPU-Sim uArch: Shader 2 finished CTA #0 (67003,0), 7 CTAs running
GPGPU-Sim uArch: core:  2, cta: 0 initialized @(67004,0)
GPGPU-Sim uArch: Shader 7 finished CTA #0 (67095,0), 7 CTAs running
GPGPU-Sim uArch: core:  7, cta: 0 initialized @(67096,0)
GPGPU-Sim PTX: 20000000 instructions simulated : ctaid=(13,0,0) tid=(127,0,0)
GPGPU-Sim uArch: Shader 12 finished CTA #0 (67292,0), 7 CTAs running
GPGPU-Sim uArch: core: 12, cta: 0 initialized @(67293,0)
GPGPU-Sim PTX: 20100000 instructions simulated : ctaid=(21,0,0) tid=(127,0,0)
GPGPU-Sim PTX: 20200000 instructions simulated : ctaid=(26,0,0) tid=(127,0,0)
GPGPU-Sim uArch: cycles simulated: 68000  inst.: 20195104 (ipc=297.0) sim_rate=276645 (inst/sec) elapsed = 0:0:01:13 / Tue Apr 16 16:46:46 2019
GPGPU-Sim uArch: Shader 6 finished CTA #0 (68204,0), 7 CTAs running
GPGPU-Sim uArch: core:  6, cta: 0 initialized @(68205,0)
GPGPU-Sim PTX: 20300000 instructions simulated : ctaid=(37,0,0) tid=(95,0,0)
GPGPU-Sim uArch: Shader 14 finished CTA #0 (68368,0), 7 CTAs running
GPGPU-Sim uArch: core: 14, cta: 0 initialized @(68369,0)
GPGPU-Sim PTX: 20400000 instructions simulated : ctaid=(24,0,0) tid=(63,0,0)
GPGPU-Sim uArch: cycles simulated: 69000  inst.: 20470304 (ipc=296.7) sim_rate=276625 (inst/sec) elapsed = 0:0:01:14 / Tue Apr 16 16:46:47 2019
GPGPU-Sim PTX: 20500000 instructions simulated : ctaid=(34,0,0) tid=(127,0,0)
GPGPU-Sim uArch: Shader 11 finished CTA #0 (69196,0), 7 CTAs running
GPGPU-Sim uArch: core: 11, cta: 0 initialized @(69197,0)
GPGPU-Sim PTX: 20600000 instructions simulated : ctaid=(57,0,0) tid=(95,0,0)
GPGPU-Sim PTX: 20700000 instructions simulated : ctaid=(38,0,0) tid=(31,0,0)
GPGPU-Sim uArch: cycles simulated: 70000  inst.: 20746144 (ipc=296.4) sim_rate=276615 (inst/sec) elapsed = 0:0:01:15 / Tue Apr 16 16:46:48 2019
GPGPU-Sim PTX: 20800000 instructions simulated : ctaid=(60,0,0) tid=(95,0,0)
GPGPU-Sim uArch: Shader 5 finished CTA #0 (70235,0), 7 CTAs running
GPGPU-Sim uArch: core:  5, cta: 0 initialized @(70236,0)
GPGPU-Sim PTX: 20900000 instructions simulated : ctaid=(67,0,0) tid=(31,0,0)
GPGPU-Sim PTX: 21000000 instructions simulated : ctaid=(85,0,0) tid=(31,0,0)
GPGPU-Sim uArch: cycles simulated: 71000  inst.: 21058464 (ipc=296.6) sim_rate=277085 (inst/sec) elapsed = 0:0:01:16 / Tue Apr 16 16:46:49 2019
GPGPU-Sim PTX: 21100000 instructions simulated : ctaid=(38,0,0) tid=(95,0,0)
GPGPU-Sim PTX: 21200000 instructions simulated : ctaid=(42,0,0) tid=(127,0,0)
GPGPU-Sim uArch: cycles simulated: 71500  inst.: 21208384 (ipc=296.6) sim_rate=275433 (inst/sec) elapsed = 0:0:01:17 / Tue Apr 16 16:46:50 2019
GPGPU-Sim PTX: 21300000 instructions simulated : ctaid=(41,0,0) tid=(63,0,0)
GPGPU-Sim PTX: 21400000 instructions simulated : ctaid=(80,0,0) tid=(63,0,0)
GPGPU-Sim PTX: 21500000 instructions simulated : ctaid=(41,0,0) tid=(31,0,0)
GPGPU-Sim uArch: cycles simulated: 72500  inst.: 21509568 (ipc=296.7) sim_rate=275763 (inst/sec) elapsed = 0:0:01:18 / Tue Apr 16 16:46:51 2019
GPGPU-Sim PTX: 21600000 instructions simulated : ctaid=(73,0,0) tid=(127,0,0)
GPGPU-Sim PTX: 21700000 instructions simulated : ctaid=(58,0,0) tid=(95,0,0)
GPGPU-Sim PTX: 21800000 instructions simulated : ctaid=(56,0,0) tid=(127,0,0)
GPGPU-Sim uArch: cycles simulated: 73500  inst.: 21791840 (ipc=296.5) sim_rate=275846 (inst/sec) elapsed = 0:0:01:19 / Tue Apr 16 16:46:52 2019
GPGPU-Sim PTX: 21900000 instructions simulated : ctaid=(30,0,0) tid=(127,0,0)
GPGPU-Sim PTX: 22000000 instructions simulated : ctaid=(75,0,0) tid=(95,0,0)
GPGPU-Sim uArch: cycles simulated: 74500  inst.: 22071968 (ipc=296.3) sim_rate=275899 (inst/sec) elapsed = 0:0:01:20 / Tue Apr 16 16:46:53 2019
GPGPU-Sim PTX: 22100000 instructions simulated : ctaid=(51,0,0) tid=(31,0,0)
GPGPU-Sim PTX: 22200000 instructions simulated : ctaid=(26,0,0) tid=(63,0,0)
GPGPU-Sim PTX: 22300000 instructions simulated : ctaid=(53,0,0) tid=(63,0,0)
GPGPU-Sim uArch: cycles simulated: 75500  inst.: 22348640 (ipc=296.0) sim_rate=275909 (inst/sec) elapsed = 0:0:01:21 / Tue Apr 16 16:46:54 2019
GPGPU-Sim PTX: 22400000 instructions simulated : ctaid=(51,0,0) tid=(127,0,0)
GPGPU-Sim PTX: 22500000 instructions simulated : ctaid=(41,0,0) tid=(95,0,0)
GPGPU-Sim PTX: 22600000 instructions simulated : ctaid=(60,0,0) tid=(95,0,0)
GPGPU-Sim PTX: 22700000 instructions simulated : ctaid=(36,0,0) tid=(63,0,0)
GPGPU-Sim uArch: cycles simulated: 76500  inst.: 22684192 (ipc=296.5) sim_rate=276636 (inst/sec) elapsed = 0:0:01:22 / Tue Apr 16 16:46:55 2019
GPGPU-Sim uArch: Shader 6 finished CTA #1 (76533,0), 7 CTAs running
GPGPU-Sim uArch: core:  6, cta: 1 initialized @(76534,0)
GPGPU-Sim uArch: Shader 4 finished CTA #1 (76705,0), 7 CTAs running
GPGPU-Sim uArch: core:  4, cta: 1 initialized @(76706,0)
GPGPU-Sim PTX: 22800000 instructions simulated : ctaid=(48,0,0) tid=(127,0,0)
GPGPU-Sim uArch: Shader 0 finished CTA #1 (76838,0), 7 CTAs running
GPGPU-Sim uArch: core:  0, cta: 1 initialized @(76839,0)
GPGPU-Sim uArch: Shader 10 finished CTA #1 (76902,0), 7 CTAs running
GPGPU-Sim uArch: core: 10, cta: 1 initialized @(76903,0)
GPGPU-Sim PTX: 22900000 instructions simulated : ctaid=(64,0,0) tid=(31,0,0)
GPGPU-Sim PTX: 23000000 instructions simulated : ctaid=(49,0,0) tid=(127,0,0)
GPGPU-Sim uArch: cycles simulated: 77500  inst.: 22973888 (ipc=296.4) sim_rate=276793 (inst/sec) elapsed = 0:0:01:23 / Tue Apr 16 16:46:56 2019
GPGPU-Sim PTX: 23100000 instructions simulated : ctaid=(101,0,0) tid=(31,0,0)
GPGPU-Sim uArch: Shader 7 finished CTA #1 (77962,0), 7 CTAs running
GPGPU-Sim uArch: core:  7, cta: 1 initialized @(77963,0)
GPGPU-Sim uArch: Shader 11 finished CTA #1 (78163,0), 7 CTAs running
GPGPU-Sim uArch: core: 11, cta: 1 initialized @(78164,0)
GPGPU-Sim PTX: 23200000 instructions simulated : ctaid=(37,0,0) tid=(63,0,0)
GPGPU-Sim uArch: cycles simulated: 78500  inst.: 23260224 (ipc=296.3) sim_rate=276907 (inst/sec) elapsed = 0:0:01:24 / Tue Apr 16 16:46:57 2019
GPGPU-Sim PTX: 23300000 instructions simulated : ctaid=(83,0,0) tid=(95,0,0)
GPGPU-Sim uArch: Shader 13 finished CTA #1 (78741,0), 7 CTAs running
GPGPU-Sim uArch: core: 13, cta: 1 initialized @(78742,0)
GPGPU-Sim PTX: 23400000 instructions simulated : ctaid=(56,0,0) tid=(63,0,0)
GPGPU-Sim uArch: cycles simulated: 79000  inst.: 23398944 (ipc=296.2) sim_rate=275281 (inst/sec) elapsed = 0:0:01:25 / Tue Apr 16 16:46:58 2019
GPGPU-Sim PTX: 23500000 instructions simulated : ctaid=(52,0,0) tid=(63,0,0)
GPGPU-Sim PTX: 23600000 instructions simulated : ctaid=(66,0,0) tid=(127,0,0)
GPGPU-Sim PTX: 23700000 instructions simulated : ctaid=(64,0,0) tid=(95,0,0)
GPGPU-Sim uArch: cycles simulated: 80000  inst.: 23699520 (ipc=296.2) sim_rate=275575 (inst/sec) elapsed = 0:0:01:26 / Tue Apr 16 16:46:59 2019
GPGPU-Sim uArch: Shader 9 finished CTA #1 (80045,0), 7 CTAs running
GPGPU-Sim uArch: core:  9, cta: 1 initialized @(80046,0)
GPGPU-Sim PTX: 23800000 instructions simulated : ctaid=(32,0,0) tid=(63,0,0)
GPGPU-Sim PTX: 23900000 instructions simulated : ctaid=(32,0,0) tid=(63,0,0)
GPGPU-Sim uArch: Shader 2 finished CTA #1 (80649,0), 7 CTAs running
GPGPU-Sim uArch: core:  2, cta: 1 initialized @(80650,0)
GPGPU-Sim PTX: 24000000 instructions simulated : ctaid=(56,0,0) tid=(63,0,0)
GPGPU-Sim uArch: cycles simulated: 81000  inst.: 24004640 (ipc=296.4) sim_rate=275915 (inst/sec) elapsed = 0:0:01:27 / Tue Apr 16 16:47:00 2019
GPGPU-Sim PTX: 24100000 instructions simulated : ctaid=(63,0,0) tid=(95,0,0)
GPGPU-Sim uArch: Shader 12 finished CTA #1 (81416,0), 7 CTAs running
GPGPU-Sim uArch: core: 12, cta: 1 initialized @(81417,0)
GPGPU-Sim PTX: 24200000 instructions simulated : ctaid=(73,0,0) tid=(31,0,0)
GPGPU-Sim uArch: Shader 3 finished CTA #1 (81774,0), 7 CTAs running
GPGPU-Sim uArch: core:  3, cta: 1 initialized @(81775,0)
GPGPU-Sim PTX: 24300000 instructions simulated : ctaid=(54,0,0) tid=(127,0,0)
GPGPU-Sim uArch: Shader 1 finished CTA #1 (81968,0), 7 CTAs running
GPGPU-Sim uArch: core:  1, cta: 1 initialized @(81969,0)
GPGPU-Sim uArch: cycles simulated: 82000  inst.: 24296384 (ipc=296.3) sim_rate=276095 (inst/sec) elapsed = 0:0:01:28 / Tue Apr 16 16:47:01 2019
GPGPU-Sim uArch: Shader 5 finished CTA #1 (82078,0), 7 CTAs running
GPGPU-Sim uArch: core:  5, cta: 1 initialized @(82079,0)
GPGPU-Sim uArch: Shader 8 finished CTA #1 (82101,0), 7 CTAs running
GPGPU-Sim uArch: core:  8, cta: 1 initialized @(82102,0)
GPGPU-Sim PTX: 24400000 instructions simulated : ctaid=(46,0,0) tid=(95,0,0)
GPGPU-Sim uArch: Shader 14 finished CTA #1 (82317,0), 7 CTAs running
GPGPU-Sim uArch: core: 14, cta: 1 initialized @(82318,0)
GPGPU-Sim PTX: 24500000 instructions simulated : ctaid=(57,0,0) tid=(63,0,0)
GPGPU-Sim PTX: 24600000 instructions simulated : ctaid=(78,0,0) tid=(31,0,0)
GPGPU-Sim uArch: cycles simulated: 83000  inst.: 24575648 (ipc=296.1) sim_rate=276130 (inst/sec) elapsed = 0:0:01:29 / Tue Apr 16 16:47:02 2019
GPGPU-Sim PTX: 24700000 instructions simulated : ctaid=(42,0,0) tid=(95,0,0)
GPGPU-Sim PTX: 24800000 instructions simulated : ctaid=(71,0,0) tid=(95,0,0)
GPGPU-Sim uArch: cycles simulated: 84000  inst.: 24855776 (ipc=295.9) sim_rate=276175 (inst/sec) elapsed = 0:0:01:30 / Tue Apr 16 16:47:03 2019
GPGPU-Sim PTX: 24900000 instructions simulated : ctaid=(31,0,0) tid=(127,0,0)
GPGPU-Sim PTX: 25000000 instructions simulated : ctaid=(95,0,0) tid=(63,0,0)
GPGPU-Sim PTX: 25100000 instructions simulated : ctaid=(43,0,0) tid=(127,0,0)
GPGPU-Sim uArch: cycles simulated: 85000  inst.: 25154816 (ipc=295.9) sim_rate=276426 (inst/sec) elapsed = 0:0:01:31 / Tue Apr 16 16:47:04 2019
GPGPU-Sim PTX: 25200000 instructions simulated : ctaid=(61,0,0) tid=(31,0,0)
GPGPU-Sim PTX: 25300000 instructions simulated : ctaid=(85,0,0) tid=(95,0,0)
GPGPU-Sim PTX: 25400000 instructions simulated : ctaid=(83,0,0) tid=(63,0,0)
GPGPU-Sim uArch: cycles simulated: 86000  inst.: 25437920 (ipc=295.8) sim_rate=276499 (inst/sec) elapsed = 0:0:01:32 / Tue Apr 16 16:47:05 2019
GPGPU-Sim PTX: 25500000 instructions simulated : ctaid=(76,0,0) tid=(95,0,0)
GPGPU-Sim PTX: 25600000 instructions simulated : ctaid=(65,0,0) tid=(95,0,0)
GPGPU-Sim PTX: 25700000 instructions simulated : ctaid=(56,0,0) tid=(31,0,0)
GPGPU-Sim uArch: cycles simulated: 87000  inst.: 25730304 (ipc=295.8) sim_rate=276669 (inst/sec) elapsed = 0:0:01:33 / Tue Apr 16 16:47:06 2019
GPGPU-Sim PTX: 25800000 instructions simulated : ctaid=(44,0,0) tid=(127,0,0)
GPGPU-Sim PTX: 25900000 instructions simulated : ctaid=(97,0,0) tid=(95,0,0)
GPGPU-Sim PTX: 26000000 instructions simulated : ctaid=(46,0,0) tid=(95,0,0)
GPGPU-Sim uArch: cycles simulated: 88000  inst.: 26050528 (ipc=296.0) sim_rate=277133 (inst/sec) elapsed = 0:0:01:34 / Tue Apr 16 16:47:07 2019
GPGPU-Sim PTX: 26100000 instructions simulated : ctaid=(76,0,0) tid=(63,0,0)
GPGPU-Sim PTX: 26200000 instructions simulated : ctaid=(48,0,0) tid=(31,0,0)
GPGPU-Sim uArch: cycles simulated: 88500  inst.: 26209632 (ipc=296.2) sim_rate=275890 (inst/sec) elapsed = 0:0:01:35 / Tue Apr 16 16:47:08 2019
GPGPU-Sim PTX: 26300000 instructions simulated : ctaid=(67,0,0) tid=(95,0,0)
GPGPU-Sim PTX: 26400000 instructions simulated : ctaid=(49,0,0) tid=(63,0,0)
GPGPU-Sim PTX: 26500000 instructions simulated : ctaid=(46,0,0) tid=(31,0,0)
GPGPU-Sim uArch: cycles simulated: 89500  inst.: 26533024 (ipc=296.5) sim_rate=276385 (inst/sec) elapsed = 0:0:01:36 / Tue Apr 16 16:47:09 2019
GPGPU-Sim PTX: 26600000 instructions simulated : ctaid=(33,0,0) tid=(127,0,0)
GPGPU-Sim PTX: 26700000 instructions simulated : ctaid=(65,0,0) tid=(31,0,0)
GPGPU-Sim PTX: 26800000 instructions simulated : ctaid=(80,0,0) tid=(127,0,0)
GPGPU-Sim uArch: cycles simulated: 90500  inst.: 26836160 (ipc=296.5) sim_rate=276661 (inst/sec) elapsed = 0:0:01:37 / Tue Apr 16 16:47:10 2019
GPGPU-Sim PTX: 26900000 instructions simulated : ctaid=(32,0,0) tid=(63,0,0)
GPGPU-Sim PTX: 27000000 instructions simulated : ctaid=(55,0,0) tid=(127,0,0)
GPGPU-Sim PTX: 27100000 instructions simulated : ctaid=(66,0,0) tid=(31,0,0)
GPGPU-Sim uArch: cycles simulated: 91500  inst.: 27156992 (ipc=296.8) sim_rate=277112 (inst/sec) elapsed = 0:0:01:38 / Tue Apr 16 16:47:11 2019
GPGPU-Sim PTX: 27200000 instructions simulated : ctaid=(51,0,0) tid=(63,0,0)
GPGPU-Sim PTX: 27300000 instructions simulated : ctaid=(51,0,0) tid=(95,0,0)
GPGPU-Sim uArch: Shader 10 finished CTA #2 (92125,0), 7 CTAs running
GPGPU-Sim uArch: core: 10, cta: 2 initialized @(92126,0)
GPGPU-Sim PTX: 27400000 instructions simulated : ctaid=(50,0,0) tid=(127,0,0)
GPGPU-Sim uArch: cycles simulated: 92500  inst.: 27443136 (ipc=296.7) sim_rate=277203 (inst/sec) elapsed = 0:0:01:39 / Tue Apr 16 16:47:12 2019
GPGPU-Sim PTX: 27500000 instructions simulated : ctaid=(59,0,0) tid=(95,0,0)
GPGPU-Sim PTX: 27600000 instructions simulated : ctaid=(69,0,0) tid=(95,0,0)
GPGPU-Sim PTX: 27700000 instructions simulated : ctaid=(63,0,0) tid=(31,0,0)
GPGPU-Sim uArch: cycles simulated: 93500  inst.: 27701696 (ipc=296.3) sim_rate=277016 (inst/sec) elapsed = 0:0:01:40 / Tue Apr 16 16:47:13 2019
GPGPU-Sim PTX: 27800000 instructions simulated : ctaid=(46,0,0) tid=(127,0,0)
GPGPU-Sim PTX: 27900000 instructions simulated : ctaid=(47,0,0) tid=(95,0,0)
GPGPU-Sim PTX: 28000000 instructions simulated : ctaid=(79,0,0) tid=(127,0,0)
GPGPU-Sim uArch: cycles simulated: 94500  inst.: 28024928 (ipc=296.6) sim_rate=277474 (inst/sec) elapsed = 0:0:01:41 / Tue Apr 16 16:47:14 2019
GPGPU-Sim PTX: 28100000 instructions simulated : ctaid=(108,0,0) tid=(31,0,0)
GPGPU-Sim PTX: 28200000 instructions simulated : ctaid=(51,0,0) tid=(63,0,0)
GPGPU-Sim PTX: 28300000 instructions simulated : ctaid=(70,0,0) tid=(31,0,0)
GPGPU-Sim uArch: cycles simulated: 95500  inst.: 28303328 (ipc=296.4) sim_rate=277483 (inst/sec) elapsed = 0:0:01:42 / Tue Apr 16 16:47:15 2019
GPGPU-Sim PTX: 28400000 instructions simulated : ctaid=(53,0,0) tid=(95,0,0)
GPGPU-Sim uArch: Shader 0 finished CTA #2 (95926,0), 7 CTAs running
GPGPU-Sim uArch: core:  0, cta: 2 initialized @(95927,0)
GPGPU-Sim PTX: 28500000 instructions simulated : ctaid=(87,0,0) tid=(127,0,0)
GPGPU-Sim PTX: 28600000 instructions simulated : ctaid=(63,0,0) tid=(127,0,0)
GPGPU-Sim uArch: cycles simulated: 96500  inst.: 28603392 (ipc=296.4) sim_rate=277702 (inst/sec) elapsed = 0:0:01:43 / Tue Apr 16 16:47:16 2019
GPGPU-Sim PTX: 28700000 instructions simulated : ctaid=(62,0,0) tid=(95,0,0)
GPGPU-Sim uArch: Shader 2 finished CTA #2 (96762,0), 7 CTAs running
GPGPU-Sim uArch: core:  2, cta: 2 initialized @(96763,0)
GPGPU-Sim PTX: 28800000 instructions simulated : ctaid=(84,0,0) tid=(63,0,0)
GPGPU-Sim uArch: Shader 7 finished CTA #2 (97262,0), 7 CTAs running
GPGPU-Sim uArch: core:  7, cta: 2 initialized @(97263,0)
GPGPU-Sim PTX: 28900000 instructions simulated : ctaid=(100,0,0) tid=(95,0,0)
GPGPU-Sim uArch: cycles simulated: 97500  inst.: 28905472 (ipc=296.5) sim_rate=277937 (inst/sec) elapsed = 0:0:01:44 / Tue Apr 16 16:47:17 2019
GPGPU-Sim PTX: 29000000 instructions simulated : ctaid=(68,0,0) tid=(95,0,0)
GPGPU-Sim uArch: Shader 4 finished CTA #2 (97762,0), 7 CTAs running
GPGPU-Sim uArch: core:  4, cta: 2 initialized @(97763,0)
GPGPU-Sim PTX: 29100000 instructions simulated : ctaid=(65,0,0) tid=(63,0,0)
GPGPU-Sim PTX: 29200000 instructions simulated : ctaid=(71,0,0) tid=(127,0,0)
GPGPU-Sim uArch: cycles simulated: 98500  inst.: 29235264 (ipc=296.8) sim_rate=278431 (inst/sec) elapsed = 0:0:01:45 / Tue Apr 16 16:47:18 2019
GPGPU-Sim PTX: 29300000 instructions simulated : ctaid=(85,0,0) tid=(63,0,0)
GPGPU-Sim PTX: 29400000 instructions simulated : ctaid=(55,0,0) tid=(95,0,0)
GPGPU-Sim uArch: Shader 6 finished CTA #2 (99023,0), 7 CTAs running
GPGPU-Sim uArch: core:  6, cta: 2 initialized @(99024,0)
GPGPU-Sim PTX: 29500000 instructions simulated : ctaid=(59,0,0) tid=(63,0,0)
GPGPU-Sim uArch: Shader 8 finished CTA #2 (99387,0), 7 CTAs running
GPGPU-Sim uArch: core:  8, cta: 2 initialized @(99388,0)
GPGPU-Sim uArch: cycles simulated: 99500  inst.: 29536992 (ipc=296.9) sim_rate=278650 (inst/sec) elapsed = 0:0:01:46 / Tue Apr 16 16:47:19 2019
GPGPU-Sim PTX: 29600000 instructions simulated : ctaid=(61,0,0) tid=(95,0,0)
GPGPU-Sim PTX: 29700000 instructions simulated : ctaid=(98,0,0) tid=(31,0,0)
GPGPU-Sim PTX: 29800000 instructions simulated : ctaid=(71,0,0) tid=(127,0,0)
GPGPU-Sim uArch: Shader 9 finished CTA #2 (100323,0), 7 CTAs running
GPGPU-Sim uArch: core:  9, cta: 2 initialized @(100324,0)
GPGPU-Sim uArch: Shader 13 finished CTA #2 (100341,0), 7 CTAs running
GPGPU-Sim uArch: core: 13, cta: 2 initialized @(100342,0)
GPGPU-Sim uArch: cycles simulated: 100500  inst.: 29840608 (ipc=296.9) sim_rate=278884 (inst/sec) elapsed = 0:0:01:47 / Tue Apr 16 16:47:20 2019
GPGPU-Sim PTX: 29900000 instructions simulated : ctaid=(53,0,0) tid=(127,0,0)
GPGPU-Sim PTX: 30000000 instructions simulated : ctaid=(62,0,0) tid=(31,0,0)
GPGPU-Sim uArch: Shader 5 finished CTA #2 (101174,0), 7 CTAs running
GPGPU-Sim uArch: core:  5, cta: 2 initialized @(101175,0)
GPGPU-Sim uArch: Shader 1 finished CTA #2 (101390,0), 7 CTAs running
GPGPU-Sim uArch: core:  1, cta: 2 initialized @(101391,0)
GPGPU-Sim PTX: 30100000 instructions simulated : ctaid=(45,0,0) tid=(63,0,0)
GPGPU-Sim uArch: cycles simulated: 101500  inst.: 30094176 (ipc=296.5) sim_rate=278649 (inst/sec) elapsed = 0:0:01:48 / Tue Apr 16 16:47:21 2019
GPGPU-Sim PTX: 30200000 instructions simulated : ctaid=(47,0,0) tid=(63,0,0)
GPGPU-Sim PTX: 30300000 instructions simulated : ctaid=(94,0,0) tid=(95,0,0)
GPGPU-Sim PTX: 30400000 instructions simulated : ctaid=(65,0,0) tid=(31,0,0)
GPGPU-Sim uArch: cycles simulated: 102500  inst.: 30434272 (ipc=296.9) sim_rate=279213 (inst/sec) elapsed = 0:0:01:49 / Tue Apr 16 16:47:22 2019
GPGPU-Sim PTX: 30500000 instructions simulated : ctaid=(119,0,0) tid=(95,0,0)
GPGPU-Sim PTX: 30600000 instructions simulated : ctaid=(87,0,0) tid=(63,0,0)
GPGPU-Sim PTX: 30700000 instructions simulated : ctaid=(74,0,0) tid=(95,0,0)
GPGPU-Sim uArch: cycles simulated: 103500  inst.: 30759264 (ipc=297.2) sim_rate=279629 (inst/sec) elapsed = 0:0:01:50 / Tue Apr 16 16:47:23 2019
GPGPU-Sim PTX: 30800000 instructions simulated : ctaid=(83,0,0) tid=(95,0,0)
GPGPU-Sim uArch: Shader 14 finished CTA #2 (103806,0), 7 CTAs running
GPGPU-Sim uArch: core: 14, cta: 2 initialized @(103807,0)
GPGPU-Sim PTX: 30900000 instructions simulated : ctaid=(74,0,0) tid=(127,0,0)
GPGPU-Sim uArch: Shader 3 finished CTA #2 (103899,0), 7 CTAs running
GPGPU-Sim uArch: core:  3, cta: 2 initialized @(103900,0)
GPGPU-Sim PTX: 31000000 instructions simulated : ctaid=(45,0,0) tid=(127,0,0)
GPGPU-Sim PTX: 31100000 instructions simulated : ctaid=(91,0,0) tid=(95,0,0)
GPGPU-Sim uArch: cycles simulated: 104500  inst.: 31080608 (ipc=297.4) sim_rate=280005 (inst/sec) elapsed = 0:0:01:51 / Tue Apr 16 16:47:24 2019
GPGPU-Sim PTX: 31200000 instructions simulated : ctaid=(132,0,0) tid=(31,0,0)
GPGPU-Sim PTX: 31300000 instructions simulated : ctaid=(64,0,0) tid=(95,0,0)
GPGPU-Sim PTX: 31400000 instructions simulated : ctaid=(102,0,0) tid=(31,0,0)
GPGPU-Sim uArch: cycles simulated: 105500  inst.: 31408480 (ipc=297.7) sim_rate=280432 (inst/sec) elapsed = 0:0:01:52 / Tue Apr 16 16:47:25 2019
GPGPU-Sim PTX: 31500000 instructions simulated : ctaid=(66,0,0) tid=(63,0,0)
GPGPU-Sim PTX: 31600000 instructions simulated : ctaid=(96,0,0) tid=(31,0,0)
GPGPU-Sim uArch: Shader 12 finished CTA #2 (106231,0), 7 CTAs running
GPGPU-Sim uArch: core: 12, cta: 2 initialized @(106232,0)
GPGPU-Sim PTX: 31700000 instructions simulated : ctaid=(49,0,0) tid=(95,0,0)
GPGPU-Sim PTX: 31800000 instructions simulated : ctaid=(80,0,0) tid=(63,0,0)
GPGPU-Sim uArch: Shader 11 finished CTA #2 (106809,0), 7 CTAs running
GPGPU-Sim uArch: core: 11, cta: 2 initialized @(106810,0)
GPGPU-Sim uArch: cycles simulated: 107000  inst.: 31862592 (ipc=297.8) sim_rate=281969 (inst/sec) elapsed = 0:0:01:53 / Tue Apr 16 16:47:26 2019
GPGPU-Sim PTX: 31900000 instructions simulated : ctaid=(46,0,0) tid=(63,0,0)
GPGPU-Sim PTX: 32000000 instructions simulated : ctaid=(67,0,0) tid=(31,0,0)
GPGPU-Sim PTX: 32100000 instructions simulated : ctaid=(88,0,0) tid=(31,0,0)
GPGPU-Sim uArch: cycles simulated: 108000  inst.: 32132096 (ipc=297.5) sim_rate=281860 (inst/sec) elapsed = 0:0:01:54 / Tue Apr 16 16:47:27 2019
GPGPU-Sim PTX: 32200000 instructions simulated : ctaid=(99,0,0) tid=(127,0,0)
GPGPU-Sim PTX: 32300000 instructions simulated : ctaid=(75,0,0) tid=(31,0,0)
GPGPU-Sim PTX: 32400000 instructions simulated : ctaid=(85,0,0) tid=(31,0,0)
GPGPU-Sim PTX: 32500000 instructions simulated : ctaid=(114,0,0) tid=(95,0,0)
GPGPU-Sim uArch: cycles simulated: 109000  inst.: 32470528 (ipc=297.9) sim_rate=282352 (inst/sec) elapsed = 0:0:01:55 / Tue Apr 16 16:47:28 2019
GPGPU-Sim PTX: 32600000 instructions simulated : ctaid=(48,0,0) tid=(127,0,0)
GPGPU-Sim PTX: 32700000 instructions simulated : ctaid=(69,0,0) tid=(63,0,0)
GPGPU-Sim PTX: 32800000 instructions simulated : ctaid=(62,0,0) tid=(127,0,0)
GPGPU-Sim uArch: cycles simulated: 110000  inst.: 32795904 (ipc=298.1) sim_rate=282723 (inst/sec) elapsed = 0:0:01:56 / Tue Apr 16 16:47:29 2019
GPGPU-Sim PTX: 32900000 instructions simulated : ctaid=(87,0,0) tid=(127,0,0)
GPGPU-Sim PTX: 33000000 instructions simulated : ctaid=(85,0,0) tid=(127,0,0)
GPGPU-Sim PTX: 33100000 instructions simulated : ctaid=(57,0,0) tid=(127,0,0)
GPGPU-Sim uArch: cycles simulated: 111000  inst.: 33080576 (ipc=298.0) sim_rate=282739 (inst/sec) elapsed = 0:0:01:57 / Tue Apr 16 16:47:30 2019
GPGPU-Sim PTX: 33200000 instructions simulated : ctaid=(96,0,0) tid=(31,0,0)
GPGPU-Sim PTX: 33300000 instructions simulated : ctaid=(58,0,0) tid=(63,0,0)
GPGPU-Sim PTX: 33400000 instructions simulated : ctaid=(77,0,0) tid=(31,0,0)
GPGPU-Sim PTX: 33500000 instructions simulated : ctaid=(86,0,0) tid=(63,0,0)
GPGPU-Sim uArch: cycles simulated: 112500  inst.: 33531968 (ipc=298.1) sim_rate=284169 (inst/sec) elapsed = 0:0:01:58 / Tue Apr 16 16:47:31 2019
GPGPU-Sim PTX: 33600000 instructions simulated : ctaid=(69,0,0) tid=(95,0,0)
GPGPU-Sim PTX: 33700000 instructions simulated : ctaid=(70,0,0) tid=(63,0,0)
GPGPU-Sim PTX: 33800000 instructions simulated : ctaid=(92,0,0) tid=(31,0,0)
GPGPU-Sim uArch: cycles simulated: 113500  inst.: 33840768 (ipc=298.2) sim_rate=284376 (inst/sec) elapsed = 0:0:01:59 / Tue Apr 16 16:47:32 2019
GPGPU-Sim PTX: 33900000 instructions simulated : ctaid=(71,0,0) tid=(63,0,0)
GPGPU-Sim PTX: 34000000 instructions simulated : ctaid=(90,0,0) tid=(31,0,0)
GPGPU-Sim PTX: 34100000 instructions simulated : ctaid=(101,0,0) tid=(95,0,0)
GPGPU-Sim uArch: cycles simulated: 114500  inst.: 34124608 (ipc=298.0) sim_rate=284371 (inst/sec) elapsed = 0:0:02:00 / Tue Apr 16 16:47:33 2019
GPGPU-Sim PTX: 34200000 instructions simulated : ctaid=(57,0,0) tid=(127,0,0)
GPGPU-Sim PTX: 34300000 instructions simulated : ctaid=(72,0,0) tid=(95,0,0)
GPGPU-Sim PTX: 34400000 instructions simulated : ctaid=(96,0,0) tid=(63,0,0)
GPGPU-Sim uArch: cycles simulated: 115500  inst.: 34426400 (ipc=298.1) sim_rate=284515 (inst/sec) elapsed = 0:0:02:01 / Tue Apr 16 16:47:34 2019
GPGPU-Sim PTX: 34500000 instructions simulated : ctaid=(71,0,0) tid=(63,0,0)
GPGPU-Sim PTX: 34600000 instructions simulated : ctaid=(99,0,0) tid=(95,0,0)
GPGPU-Sim PTX: 34700000 instructions simulated : ctaid=(104,0,0) tid=(31,0,0)
GPGPU-Sim uArch: cycles simulated: 116500  inst.: 34715712 (ipc=298.0) sim_rate=284555 (inst/sec) elapsed = 0:0:02:02 / Tue Apr 16 16:47:35 2019
GPGPU-Sim PTX: 34800000 instructions simulated : ctaid=(109,0,0) tid=(31,0,0)
GPGPU-Sim PTX: 34900000 instructions simulated : ctaid=(96,0,0) tid=(95,0,0)
GPGPU-Sim PTX: 35000000 instructions simulated : ctaid=(102,0,0) tid=(31,0,0)
GPGPU-Sim PTX: 35100000 instructions simulated : ctaid=(57,0,0) tid=(127,0,0)
GPGPU-Sim PTX: 35200000 instructions simulated : ctaid=(52,0,0) tid=(127,0,0)
GPGPU-Sim uArch: cycles simulated: 118000  inst.: 35180576 (ipc=298.1) sim_rate=286020 (inst/sec) elapsed = 0:0:02:03 / Tue Apr 16 16:47:36 2019
GPGPU-Sim PTX: 35300000 instructions simulated : ctaid=(100,0,0) tid=(31,0,0)
GPGPU-Sim uArch: Shader 7 finished CTA #3 (118537,0), 7 CTAs running
GPGPU-Sim uArch: core:  7, cta: 3 initialized @(118538,0)
GPGPU-Sim PTX: 35400000 instructions simulated : ctaid=(67,0,0) tid=(63,0,0)
GPGPU-Sim PTX: 35500000 instructions simulated : ctaid=(117,0,0) tid=(95,0,0)
GPGPU-Sim uArch: cycles simulated: 119000  inst.: 35470688 (ipc=298.1) sim_rate=286053 (inst/sec) elapsed = 0:0:02:04 / Tue Apr 16 16:47:37 2019
GPGPU-Sim uArch: Shader 10 finished CTA #3 (119272,0), 7 CTAs running
GPGPU-Sim uArch: core: 10, cta: 3 initialized @(119273,0)
GPGPU-Sim PTX: 35600000 instructions simulated : ctaid=(93,0,0) tid=(63,0,0)
GPGPU-Sim PTX: 35700000 instructions simulated : ctaid=(100,0,0) tid=(63,0,0)
GPGPU-Sim uArch: cycles simulated: 120000  inst.: 35735552 (ipc=297.8) sim_rate=285884 (inst/sec) elapsed = 0:0:02:05 / Tue Apr 16 16:47:38 2019
GPGPU-Sim PTX: 35800000 instructions simulated : ctaid=(53,0,0) tid=(127,0,0)
GPGPU-Sim PTX: 35900000 instructions simulated : ctaid=(87,0,0) tid=(95,0,0)
GPGPU-Sim PTX: 36000000 instructions simulated : ctaid=(67,0,0) tid=(63,0,0)
GPGPU-Sim uArch: cycles simulated: 121000  inst.: 36041440 (ipc=297.9) sim_rate=286043 (inst/sec) elapsed = 0:0:02:06 / Tue Apr 16 16:47:39 2019
GPGPU-Sim PTX: 36100000 instructions simulated : ctaid=(63,0,0) tid=(63,0,0)
GPGPU-Sim PTX: 36200000 instructions simulated : ctaid=(64,0,0) tid=(95,0,0)
GPGPU-Sim uArch: Shader 4 finished CTA #3 (121476,0), 7 CTAs running
GPGPU-Sim uArch: core:  4, cta: 3 initialized @(121477,0)
GPGPU-Sim PTX: 36300000 instructions simulated : ctaid=(69,0,0) tid=(63,0,0)
GPGPU-Sim PTX: 36400000 instructions simulated : ctaid=(87,0,0) tid=(95,0,0)
GPGPU-Sim uArch: cycles simulated: 122500  inst.: 36458496 (ipc=297.6) sim_rate=287074 (inst/sec) elapsed = 0:0:02:07 / Tue Apr 16 16:47:40 2019
GPGPU-Sim PTX: 36500000 instructions simulated : ctaid=(79,0,0) tid=(63,0,0)
GPGPU-Sim uArch: Shader 6 finished CTA #3 (122681,0), 7 CTAs running
GPGPU-Sim uArch: core:  6, cta: 3 initialized @(122682,0)
GPGPU-Sim PTX: 36600000 instructions simulated : ctaid=(73,0,0) tid=(127,0,0)
[...]
traffic_breakdown_memtocore[INST_ACC_R] = 16320 {136:120,}
maxmrqlatency = 401 
maxdqlatency = 0 
maxmflatency = 769 
averagemflatency = 303 
max_icnt2mem_latency = 121 
max_icnt2sh_latency = 676508 
mrq_lat_table:255517 	5536 	5849 	11759 	99216 	47318 	11652 	653 	9 	0 	0 	0 	0 	0 	0 	0 	0 	0 	0 	0 	0 	0 	0 	0 	0 	0 	0 	0 	0 	0 	0 	0 	
dq_lat_table:0 	0 	0 	0 	0 	0 	0 	0 	0 	0 	0 	0 	0 	0 	0 	0 	0 	0 	0 	0 	0 	0 	0 	0 	0 	0 	0 	0 	0 	0 	0 	0 	
mf_lat_table:0 	0 	0 	0 	0 	0 	0 	454 	312016 	45 	0 	0 	0 	0 	0 	0 	0 	0 	0 	0 	0 	0 	0 	0 	0 	0 	0 	0 	0 	0 	0 	0 	
icnt2mem_lat_table:0 	0 	0 	100218 	131463 	80050 	904 	0 	0 	0 	0 	0 	0 	0 	0 	0 	0 	0 	0 	0 	0 	0 	0 	0 	
icnt2sh_lat_table:0 	0 	0 	106642 	69018 	11660 	195 	0 	0 	0 	0 	157 	889 	1609 	3087 	6229 	12541 	24970 	49599 	25919 	0 	0 	0 	0 	
mf_lat_pw_table:0 	0 	0 	0 	0 	0 	0 	0 	1352 	0 	0 	0 	0 	0 	0 	0 	0 	0 	0 	0 	0 	0 	0 	0 	0 	0 	0 	0 	0 	0 	0 	0 	
maximum concurrent accesses to same row:
dram[0]:        26        26        10         9        20        20        27        29         8        12        24        24        23        22        12         8 
dram[1]:        12        26        12         8        20        18        27        28         6         8        14        10        21        20        10         8 
dram[2]:        14        24         8         7        18        22        28        29         8         8        22        20        22        24         8         8 
dram[3]:        21        24         7         8        18        24        29        29         6         6        16        12        21        21         8        10 
dram[4]:        26        26        10        10        20        24        26        26        14        14        20        22        25        25        10        18 
dram[5]:        26        26         5         6        16        22        25        26         8         6        14        16        23        24         8        14 
maximum service time to same row:
dram[0]:      3103      3304      5812      4850      3713      4459      3089      3297      3580      3316      3114      4447      3835      3774      5388      4167 
dram[1]:      4247      4766      5640      4763      4247      5568      4247      4768      4216      4770      4247      5569      4238      4769      5396      4772 
dram[2]:      2663      3430      5825      5653      2193      2572      2675      3418      3260      3465      2647      3437      4039      3675      4381      4231 
dram[3]:      3887      5264      5532      5359      3852      4157      3890      5267      3863      5256      3885      5263      4950      5262      4508      5248 
dram[4]:      3053      3347      5122      4926      2446      2670      2714      5150      3085      4025      2315      3335      4131      3884      4090      4335 
dram[5]:      3181      4538      5244      4650      2185      2731      4023      4540      3353      4525      2801      2738      3294      4541      4041      4520 
average row accesses per activate:
dram[0]:  1.475927  1.469520  1.472585  1.471144  1.469997  1.480078  1.486680  1.472803  1.466667  1.463383  1.485714  1.484269  1.481386  1.478992  1.476129  1.473752 
dram[1]:  1.475602  1.470951  1.471624  1.463984  1.467617  1.477184  1.481386  1.478036  1.455934  1.464320  1.470437  1.477559  1.471856  1.466197  1.470437  1.467607 
dram[2]:  1.471294  1.474301  1.457835  1.460667  1.471906  1.472249  1.481386  1.483787  1.470910  1.470910  1.483306  1.477082  1.474702  1.472803  1.468078  1.469021 
dram[3]:  1.471294  1.472863  1.453608  1.452672  1.469044  1.468436  1.474702  1.480906  1.465258  1.463852  1.468549  1.473752  1.466197  1.471383  1.456397  1.465727 
dram[4]:  1.471600  1.473342  1.467317  1.462087  1.472385  1.471294  1.491525  1.482345  1.469965  1.464320  1.469965  1.472803  1.473752  1.461514  1.468078  1.465727 
dram[5]:  1.462109  1.456298  1.455014  1.453140  1.460522  1.467961  1.478992  1.472803  1.459649  1.451777  1.475653  1.470437  1.477082  1.472803  1.463852  1.464320 
average row locality = 437509/297557 = 1.470337
number of total memory accesses made:
dram[0]:         0         0         0         0         0         0         0         0         0         0         0         0         0         0         0         0 
dram[1]:         0         0         0         0         0         0         0         0         0         0         0         0         0         0         0         0 
dram[2]:         0         0         0         0         0         0         0         0         0         0         0         0         0         0         0         0 
dram[3]:         0         0         0         0         0         0         0         0         0         0         0         0         0         0         0         0 
dram[4]:         0         0         0         0         0         0         0         0         0         0         0         0         0         0         0         0 
dram[5]:         0         0         0         0         0         0         0         0         0         0         0         0         0         0         0         0 
total accesses: 0
min_bank_accesses = 0!
min_chip_accesses = 0!
number of total read accesses:
dram[0]:      3251      3246      3232      3232      3242      3242      3264      3264      3264      3264      3264      3264      3264      3264      3264      3264 
dram[1]:      3250      3246      3232      3232      3242      3242      3264      3264      3264      3264      3264      3264      3264      3264      3264      3264 
dram[2]:      3250      3246      3232      3232      3242      3244      3264      3264      3264      3264      3264      3264      3264      3264      3264      3264 
dram[3]:      3250      3246      3232      3232      3242      3244      3264      3264      3264      3264      3264      3264      3264      3264      3264      3264 
dram[4]:      3248      3246      3232      3232      3242      3244      3264      3264      3264      3264      3264      3264      3264      3264      3264      3264 
dram[5]:      3248      3246      3232      3232      3242      3244      3264      3264      3264      3264      3264      3264      3264      3264      3264      3264 
total reads: 312509
bank skew: 3264/3232 = 1.01
chip skew: 52086/52084 = 1.00
number of total write accesses:
dram[0]:      1286      1286      1280      1280      1290      1290      1312      1312      1312      1312      1312      1312      1312      1312      1312      1312 
dram[1]:      1286      1286      1280      1280      1290      1290      1312      1312      1312      1312      1312      1312      1312      1312      1312      1312 
dram[2]:      1286      1286      1280      1280      1290      1292      1312      1312      1312      1312      1312      1312      1312      1312      1312      1312 
dram[3]:      1286      1286      1280      1280      1290      1292      1312      1312      1312      1312      1312      1312      1312      1312      1312      1312 
dram[4]:      1286      1286      1280      1280      1290      1292      1312      1312      1312      1312      1312      1312      1312      1312      1312      1312 
dram[5]:      1286      1286      1280      1280      1290      1292      1312      1312      1312      1312      1312      1312      1312      1312      1312      1312 
total reads: 125000
bank skew: 1312/1280 = 1.02
chip skew: 20834/20832 = 1.00
average mf latency per bank:
dram[0]:        217       216       217       216       217       217       217       217       215       216       216       216       216       216       217       217
dram[1]:        216       216       216       216       217       217       217       217       215       215       216       216       216       217       216       217
dram[2]:        216       217       217       217       217       217       217       217       216       216       216       217       216       216       216       217
dram[3]:        217       216       216       216       217       216       217       216       214       215       216       216       216       216       217       216
dram[4]:        216       217       217       216       217       218       216       217       215       216       217       217       216       216       217       217
dram[5]:        217       216       216       217       217       217       216       217       216       216       216       216       216       217       216       218
maximum mf latency per bank:
dram[0]:        432       450       457       462       593       581       727       503       437       444       660       769       451       458       484       475
dram[1]:        432       446       433       433       501       513       692       507       439       424       479       495       429       428       450       444
dram[2]:        430       462       475       449       539       504       517       558       514       507       598       620       475       440       452       486
dram[3]:        523       471       434       423       450       433       507       501       482       484       498       500       447       453       464       465
dram[4]:        463       531       439       469       522       537       587       465       427       483       648       614       502       465       502       464
dram[5]:        466       466       457       451       453       485       456       451       446       472       451       463       466       449       452       497

Number of Memory Banks Accessed per Memory Operation per Warp (from 0):
0	0	0	0	0	0	0	0	0	0	0	0	0	0	0	0	0	0	0	0	0	0	0	0	0	0	0	0	0	0	0	0	0	0	0	0	0	0	0	0	0	0	0	0	0	0	0	0	0	0	0	0	0	0	0	0	0	0	0	0	0	0	0	0	0	0	0	0	0	0	0	0	0	0	0	0	0	0	0	0	0	0	0	0	0	0	0	0	0	0	0	0	0	0	0	0	
Average # of Memory Banks Accessed per Memory Operation per Warp=-nan

position of mrq chosen
0	0	0	0	0	0	0	0	0	0	0	0	0	0	0	0	

average position of mrq chosen = -nan
Memory Partition 0: 
Cache L2_bank_000:
MSHR contents

Cache L2_bank_001:
MSHR contents

In Dram Latency Queue (total = 0): 
DRAM[0]: 16 bks, busW=4 BL=8 CL=12, tRRD=2 tCCD=6, tRCD=12 tRAS=28 tRP=12 tRC=40
n_cmd=892991 n_nop=648339 n_act=49417 n_pre=49401 n_req=72917 n_rd=104170 n_write=41664 bw_util=0.3266
n_activity=829969 dram_eff=0.3514
bk0: 6502a 750581i bk1: 6492a 748301i bk2: 6464a 747372i bk3: 6464a 746054i bk4: 6484a 745600i bk5: 6484a 742635i bk6: 6528a 741768i bk7: 6528a 738946i bk8: 6528a 747150i bk9: 6528a 745471i bk10: 6528a 747252i bk11: 6528a 744000i bk12: 6528a 743284i bk13: 6528a 743035i bk14: 6528a 740371i bk15: 6528a 737099i 
dram_util_bins: 0 0 0 0 0 0 0 0 0 0
dram_eff_bins: 0 0 0 0 0 0 0 0 0 0
mrqq: max=16 avg=1.32141
Memory Partition 1: 
Cache L2_bank_002:
MSHR contents

Cache L2_bank_003:
MSHR contents

In Dram Latency Queue (total = 0): 
DRAM[1]: 16 bks, busW=4 BL=8 CL=12, tRRD=2 tCCD=6, tRCD=12 tRAS=28 tRP=12 tRC=40
n_cmd=892991 n_nop=648013 n_act=49581 n_pre=49565 n_req=72916 n_rd=104168 n_write=41664 bw_util=0.3266
n_activity=833791 dram_eff=0.3498
bk0: 6500a 750431i bk1: 6492a 748663i bk2: 6464a 747289i bk3: 6464a 746333i bk4: 6484a 744422i bk5: 6484a 743656i bk6: 6528a 740291i bk7: 6528a 739083i bk8: 6528a 747695i bk9: 6528a 747202i bk10: 6528a 744650i bk11: 6528a 745346i bk12: 6528a 743507i bk13: 6528a 741523i bk14: 6528a 740759i bk15: 6528a 739524i 
dram_util_bins: 0 0 0 0 0 0 0 0 0 0
dram_eff_bins: 0 0 0 0 0 0 0 0 0 0
mrqq: max=16 avg=1.29902
Memory Partition 2: 
Cache L2_bank_004:
MSHR contents

Cache L2_bank_005:
MSHR contents

In Dram Latency Queue (total = 0): 
DRAM[2]: 16 bks, busW=4 BL=8 CL=12, tRRD=2 tCCD=6, tRCD=12 tRAS=28 tRP=12 tRC=40
n_cmd=892991 n_nop=648125 n_act=49521 n_pre=49505 n_req=72920 n_rd=104172 n_write=41668 bw_util=0.3266
n_activity=828726 dram_eff=0.352
bk0: 6500a 750390i bk1: 6492a 747848i bk2: 6464a 746535i bk3: 6464a 744066i bk4: 6484a 743656i bk5: 6488a 742056i bk6: 6528a 741482i bk7: 6528a 740788i bk8: 6528a 747878i bk9: 6528a 745605i bk10: 6528a 744153i bk11: 6528a 743423i bk12: 6528a 743158i bk13: 6528a 742288i bk14: 6528a 740643i bk15: 6528a 739087i 
dram_util_bins: 0 0 0 0 0 0 0 0 0 0
dram_eff_bins: 0 0 0 0 0 0 0 0 0 0
mrqq: max=16 avg=1.31829
Memory Partition 3: 
Cache L2_bank_006:
MSHR contents

Cache L2_bank_007:
MSHR contents
MSHR: tag=0x80f21180, atomic=0 1 entries : 0x7f2c6cf2eb90 :  mf: uid=12796012, sid08:w03, part=3, addr=0x80f21180, load , size=128, unknown  status = IN_PARTITION_DRAM (676506), 

In Dram Latency Queue (total = 0): 
DRAM[3]: 16 bks, busW=4 BL=8 CL=12, tRRD=2 tCCD=6, tRCD=12 tRAS=28 tRP=12 tRC=40
n_cmd=892991 n_nop=647763 n_act=49702 n_pre=49686 n_req=72920 n_rd=104172 n_write=41668 bw_util=0.3266
n_activity=833550 dram_eff=0.3499
bk0: 6500a 749928i bk1: 6492a 748477i bk2: 6464a 748076i bk3: 6464a 745542i bk4: 6484a 744700i bk5: 6488a 743422i bk6: 6528a 739482i bk7: 6528a 741134i bk8: 6528a 749719i bk9: 6528a 747095i bk10: 6528a 745373i bk11: 6528a 744388i bk12: 6528a 743830i bk13: 6528a 743233i bk14: 6528a 738877i bk15: 6528a 739816i 
dram_util_bins: 0 0 0 0 0 0 0 0 0 0
dram_eff_bins: 0 0 0 0 0 0 0 0 0 0
mrqq: max=16 avg=1.28385
Memory Partition 4: 
Cache L2_bank_008:
MSHR contents

Cache L2_bank_009:
MSHR contents

In Dram Latency Queue (total = 0): 
DRAM[4]: 16 bks, busW=4 BL=8 CL=12, tRRD=2 tCCD=6, tRCD=12 tRAS=28 tRP=12 tRC=40
n_cmd=892991 n_nop=648037 n_act=49567 n_pre=49551 n_req=72918 n_rd=104168 n_write=41668 bw_util=0.3266
n_activity=830719 dram_eff=0.3511
bk0: 6496a 749481i bk1: 6492a 747435i bk2: 6464a 747793i bk3: 6464a 746211i bk4: 6484a 744924i bk5: 6488a 741647i bk6: 6528a 741915i bk7: 6528a 739081i bk8: 6528a 748418i bk9: 6528a 745668i bk10: 6528a 745226i bk11: 6528a 743960i bk12: 6528a 742533i bk13: 6528a 741334i bk14: 6528a 739611i bk15: 6528a 737549i 
dram_util_bins: 0 0 0 0 0 0 0 0 0 0
dram_eff_bins: 0 0 0 0 0 0 0 0 0 0
mrqq: max=16 avg=1.33161
Memory Partition 5: 
Cache L2_bank_010:
MSHR contents

Cache L2_bank_011:
MSHR contents

In Dram Latency Queue (total = 0): 
DRAM[5]: 16 bks, busW=4 BL=8 CL=12, tRRD=2 tCCD=6, tRCD=12 tRAS=28 tRP=12 tRC=40
n_cmd=892991 n_nop=647633 n_act=49769 n_pre=49753 n_req=72918 n_rd=104168 n_write=41668 bw_util=0.3266
n_activity=834979 dram_eff=0.3493
bk0: 6496a 748632i bk1: 6492a 747531i bk2: 6464a 747040i bk3: 6464a 745364i bk4: 6484a 744107i bk5: 6488a 742267i bk6: 6528a 742336i bk7: 6528a 741019i bk8: 6528a 747626i bk9: 6528a 746968i bk10: 6528a 745117i bk11: 6528a 742693i bk12: 6528a 743550i bk13: 6528a 742892i bk14: 6528a 740850i bk15: 6528a 737236i 
dram_util_bins: 0 0 0 0 0 0 0 0 0 0
dram_eff_bins: 0 0 0 0 0 0 0 0 0 0
mrqq: max=16 avg=1.31031

========= L2 cache stats =========
L2_cache_bank[0]: Access = 26087, Miss = 26045, Miss_rate = 0.998, Pending_hits = 9, Reservation_fails = 342
L2_cache_bank[1]: Access = 26040, Miss = 26040, Miss_rate = 1.000, Pending_hits = 0, Reservation_fails = 0
L2_cache_bank[2]: Access = 26072, Miss = 26044, Miss_rate = 0.999, Pending_hits = 6, Reservation_fails = 191
L2_cache_bank[3]: Access = 26040, Miss = 26040, Miss_rate = 1.000, Pending_hits = 0, Reservation_fails = 0
L2_cache_bank[4]: Access = 26072, Miss = 26044, Miss_rate = 0.999, Pending_hits = 6, Reservation_fails = 213
L2_cache_bank[5]: Access = 26042, Miss = 26042, Miss_rate = 1.000, Pending_hits = 0, Reservation_fails = 0
L2_cache_bank[6]: Access = 26072, Miss = 26044, Miss_rate = 0.999, Pending_hits = 6, Reservation_fails = 204
L2_cache_bank[7]: Access = 26042, Miss = 26042, Miss_rate = 1.000, Pending_hits = 0, Reservation_fails = 0
L2_cache_bank[8]: Access = 26042, Miss = 26042, Miss_rate = 1.000, Pending_hits = 0, Reservation_fails = 0
L2_cache_bank[9]: Access = 26042, Miss = 26042, Miss_rate = 1.000, Pending_hits = 0, Reservation_fails = 0
L2_cache_bank[10]: Access = 26042, Miss = 26042, Miss_rate = 1.000, Pending_hits = 0, Reservation_fails = 0
L2_cache_bank[11]: Access = 26042, Miss = 26042, Miss_rate = 1.000, Pending_hits = 0, Reservation_fails = 0
L2_total_cache_accesses = 312635
L2_total_cache_misses = 312509
L2_total_cache_miss_rate = 0.9996
L2_total_cache_pending_hits = 27
L2_total_cache_reservation_fails = 950
L2_total_cache_breakdown:
	L2_cache_stats_breakdown[GLOBAL_ACC_R][MISS] = 187500
	L2_cache_stats_breakdown[CONST_ACC_R][HIT] = 11
	L2_cache_stats_breakdown[CONST_ACC_R][HIT_RESERVED] = 3
	L2_cache_stats_breakdown[CONST_ACC_R][MISS] = 1
	L2_cache_stats_breakdown[CONST_ACC_R][RESERVATION_FAIL] = 109
	L2_cache_stats_breakdown[GLOBAL_ACC_W][MISS] = 125000
	L2_cache_stats_breakdown[GLOBAL_ACC_W][RESERVATION_FAIL] = 2
	L2_cache_stats_breakdown[INST_ACC_R][HIT] = 88
	L2_cache_stats_breakdown[INST_ACC_R][HIT_RESERVED] = 24
	L2_cache_stats_breakdown[INST_ACC_R][MISS] = 8
	L2_cache_stats_breakdown[INST_ACC_R][RESERVATION_FAIL] = 839
L2_cache_data_port_util = 0.000
L2_cache_fill_port_util = 0.154

icnt_total_pkts_mem_to_simt=1063145
icnt_total_pkts_simt_to_mem=812635
LD_mem_lat_dist  0 0 0 0 0 0 0 0 0 0 0 0 0 0 0 0 0 0 0 0 0 0 0 0 0 0 0
ST_mem_lat_dist  0 0 0 0 0 0 0 0 0 0 0 0 0 0 0 0 0 0 0 0 0 0 0 0 0 0 0
----------------------------Interconnect-DETAILS--------------------------------
Class 0:
Packet latency average = 15.4276
	minimum = 6
	maximum = 110
Network latency average = 12.9122
	minimum = 6
	maximum = 104
Slowest packet = 841
Flit latency average = 10.5762
	minimum = 6
	maximum = 100
Slowest flit = 2243
Fragmentation average = 0
	minimum = 0
	maximum = 0
Injected packet rate average = 0.0342318
	minimum = 0.0298429 (at node 11)
	maximum = 0.0385612 (at node 15)
Accepted packet rate average = 0.0342318
	minimum = 0.0298429 (at node 11)
	maximum = 0.0385612 (at node 15)
Injected flit rate average = 0.102694
	minimum = 0.0775703 (at node 11)
	maximum = 0.131175 (at node 15)
Accepted flit rate average= 0.102694
	minimum = 0.100078 (at node 16)
	maximum = 0.108018 (at node 8)
Injected packet length average = 2.99995
Accepted packet length average = 2.99995
Total in-flight flits = 0 (0 measured)
====== Overall Traffic Statistics ======
====== Traffic class 0 ======
Packet latency average = 15.4276 (1 samples)
	minimum = 6 (1 samples)
	maximum = 110 (1 samples)
Network latency average = 12.9122 (1 samples)
	minimum = 6 (1 samples)
	maximum = 104 (1 samples)
Flit latency average = 10.5762 (1 samples)
	minimum = 6 (1 samples)
	maximum = 100 (1 samples)
Fragmentation average = 0 (1 samples)
	minimum = 0 (1 samples)
	maximum = 0 (1 samples)
Injected packet rate average = 0.0342318 (1 samples)
	minimum = 0.0298429 (1 samples)
	maximum = 0.0385612 (1 samples)
Accepted packet rate average = 0.0342318 (1 samples)
	minimum = 0.0298429 (1 samples)
	maximum = 0.0385612 (1 samples)
Injected flit rate average = 0.102694 (1 samples)
	minimum = 0.0775703 (1 samples)
	maximum = 0.131175 (1 samples)
Accepted flit rate average = 0.102694 (1 samples)
	minimum = 0.100078 (1 samples)
	maximum = 0.108018 (1 samples)
Injected packet size average = 2.99995 (1 samples)
Accepted packet size average = 2.99995 (1 samples)
Hops average = 1 (1 samples)
----------------------------END-of-Interconnect-DETAILS-------------------------
GPGPU-Sim API: Stream Manager State


gpgpu_simulation_time = 0 days, 0 hrs, 10 min, 52 sec (652 sec)
gpgpu_simulation_rate = 300278 (inst/sec)
gpgpu_simulation_rate = 1037 (cycle/sec)
GPGPU-Sim: detected inactive GPU simulation thread
Options count             : 4000000     
BlackScholesGPU() time    : 650636.937500 msec
Effective memory bandwidth: 0.000061 GB/s
Gigaoptions per second    : 0.000006     
Reading back GPU results...
Checking the results...
...running CPU calculations.
Comparing the results...
L1 norm: 1.729535E-07
Max absolute error: 1.192093E-05
TEST PASSED
Shutting down...
...releasing GPU memory.
...releasing CPU memory.
Shutdown done.
GPGPU-Sim: exit_simulation called
GPGPU-Sim: simulation thread signaled exit

Press ENTER to exit...
