

        *** GPGPU-Sim Simulator Version 3.2.2  [build 0] ***


GPGPU-Sim PTX: simulation mode 0 (can change with PTX_SIM_MODE_FUNC environment variable:
               1=functional simulation only, 0=detailed performance simulator)
GPGPU-Sim: Configuration options:

-network_mode                           1 # Interconnection network mode
-inter_config_file   config_fermi_islip.icnt # Interconnection network config file
-gpgpu_ptx_use_cuobjdump                    1 # Use cuobjdump to extract ptx and sass from binaries
-gpgpu_experimental_lib_support                    0 # Try to extract code from cuda libraries [Broken because of unknown cudaGetExportTable]
-gpgpu_ptx_convert_to_ptxplus                    0 # Convert SASS (native ISA) to ptxplus and run ptxplus
-gpgpu_ptx_force_max_capability                   20 # Force maximum compute capability
-gpgpu_ptx_inst_debug_to_file                    0 # Dump executed instructions' debug information to file
-gpgpu_ptx_inst_debug_file       inst_debug.txt # Executed instructions' debug output file
-gpgpu_ptx_inst_debug_thread_uid                    1 # Thread UID for executed instructions' debug output
-gpgpu_simd_model                       1 # 1 = post-dominator
-gpgpu_shader_core_pipeline              1536:32 # shader core pipeline config, i.e., {<nthread>:<warpsize>}
-gpgpu_tex_cache:l1  4:128:24,L:R:m:N:L,F:128:4,128:2 # per-shader L1 texture cache  (READ-ONLY) config  {<nsets>:<bsize>:<assoc>,<rep>:<wr>:<alloc>:<wr_alloc>,<mshr>:<N>:<merge>,<mq>:<rf>}
-gpgpu_const_cache:l1 64:64:2,L:R:f:N:L,A:2:32,4 # per-shader L1 constant memory cache  (READ-ONLY) config  {<nsets>:<bsize>:<assoc>,<rep>:<wr>:<alloc>:<wr_alloc>,<mshr>:<N>:<merge>,<mq>} 
-gpgpu_cache:il1     4:128:4,L:R:f:N:L,A:2:32,4 # shader L1 instruction cache config  {<nsets>:<bsize>:<assoc>,<rep>:<wr>:<alloc>:<wr_alloc>,<mshr>:<N>:<merge>,<mq>} 
-gpgpu_cache:dl1     32:128:8,L:L:m:N:H,A:32:8,8 # per-shader L1 data cache config  {<nsets>:<bsize>:<assoc>,<rep>:<wr>:<alloc>:<wr_alloc>,<mshr>:<N>:<merge>,<mq> | none}
-gpgpu_cache:dl1PrefL1                 none # per-shader L1 data cache config  {<nsets>:<bsize>:<assoc>,<rep>:<wr>:<alloc>:<wr_alloc>,<mshr>:<N>:<merge>,<mq> | none}
-gpgpu_cache:dl1PreShared                 none # per-shader L1 data cache config  {<nsets>:<bsize>:<assoc>,<rep>:<wr>:<alloc>:<wr_alloc>,<mshr>:<N>:<merge>,<mq> | none}
-gmem_skip_L1D                          0 # global memory access skip L1D cache (implements -Xptxas -dlcm=cg, default=no skip)
-gpgpu_perfect_mem                      0 # enable perfect memory mode (no cache miss)
-n_regfile_gating_group                    4 # group of lanes that should be read/written together)
-gpgpu_clock_gated_reg_file                    0 # enable clock gated reg file for power calculations
-gpgpu_clock_gated_lanes                    0 # enable clock gated lanes for power calculations
-gpgpu_shader_registers                32768 # Number of registers per shader core. Limits number of concurrent CTAs. (default 8192)
-gpgpu_shader_cta                       8 # Maximum number of concurrent CTAs in shader (default 8)
-gpgpu_num_cta_barriers                   16 # Maximum number of named barriers per CTA (default 16)
-gpgpu_n_clusters                      15 # number of processing clusters
-gpgpu_n_cores_per_cluster                    1 # number of simd cores per cluster
-gpgpu_n_cluster_ejection_buffer_size                    8 # number of packets in ejection buffer
-gpgpu_n_ldst_response_buffer_size                    2 # number of response packets in ld/st unit ejection buffer
-gpgpu_shmem_size                   16384 # Size of shared memory per shader core (default 16kB)
-gpgpu_shmem_size                   49152 # Size of shared memory per shader core (default 16kB)
-gpgpu_shmem_size_PrefL1                16384 # Size of shared memory per shader core (default 16kB)
-gpgpu_shmem_size_PrefShared                16384 # Size of shared memory per shader core (default 16kB)
-gpgpu_shmem_num_banks                   32 # Number of banks in the shared memory in each shader core (default 16)
-gpgpu_shmem_limited_broadcast                    0 # Limit shared memory to do one broadcast per cycle (default on)
-gpgpu_shmem_warp_parts                    1 # Number of portions a warp is divided into for shared memory bank conflict check 
-gpgpu_warpdistro_shader                   -1 # Specify which shader core to collect the warp size distribution from
-gpgpu_warp_issue_shader                    0 # Specify which shader core to collect the warp issue distribution from
-gpgpu_local_mem_map                    1 # Mapping from local memory space address to simulated GPU physical address space (default = enabled)
-gpgpu_num_reg_banks                   16 # Number of register banks (default = 8)
-gpgpu_reg_bank_use_warp_id                    0 # Use warp ID in mapping registers to banks (default = off)
-gpgpu_operand_collector_num_units_sp                    6 # number of collector units (default = 4)
-gpgpu_operand_collector_num_units_sfu                    8 # number of collector units (default = 4)
-gpgpu_operand_collector_num_units_mem                    2 # number of collector units (default = 2)
-gpgpu_operand_collector_num_units_gen                    0 # number of collector units (default = 0)
-gpgpu_operand_collector_num_in_ports_sp                    2 # number of collector unit in ports (default = 1)
-gpgpu_operand_collector_num_in_ports_sfu                    1 # number of collector unit in ports (default = 1)
-gpgpu_operand_collector_num_in_ports_mem                    1 # number of collector unit in ports (default = 1)
-gpgpu_operand_collector_num_in_ports_gen                    0 # number of collector unit in ports (default = 0)
-gpgpu_operand_collector_num_out_ports_sp                    2 # number of collector unit in ports (default = 1)
-gpgpu_operand_collector_num_out_ports_sfu                    1 # number of collector unit in ports (default = 1)
-gpgpu_operand_collector_num_out_ports_mem                    1 # number of collector unit in ports (default = 1)
-gpgpu_operand_collector_num_out_ports_gen                    0 # number of collector unit in ports (default = 0)
-gpgpu_coalesce_arch                   13 # Coalescing arch (default = 13, anything else is off for now)
-gpgpu_num_sched_per_core                    2 # Number of warp schedulers per core
-gpgpu_max_insn_issue_per_warp                    1 # Max number of instructions that can be issued per warp in one cycle by scheduler
-gpgpu_simt_core_sim_order                    1 # Select the simulation order of cores in a cluster (0=Fix, 1=Round-Robin)
-gpgpu_pipeline_widths        2,1,1,2,1,1,2 # Pipeline widths ID_OC_SP,ID_OC_SFU,ID_OC_MEM,OC_EX_SP,OC_EX_SFU,OC_EX_MEM,EX_WB
-gpgpu_num_sp_units                     2 # Number of SP units (default=1)
-gpgpu_num_sfu_units                    1 # Number of SF units (default=1)
-gpgpu_num_mem_units                    1 # Number if ldst units (default=1) WARNING: not hooked up to anything
-gpgpu_scheduler                      gto # Scheduler configuration: < lrr | gto | two_level_active > If two_level_active:<num_active_warps>:<inner_prioritization>:<outer_prioritization>For complete list of prioritization values see shader.h enum scheduler_prioritization_typeDefault: gto
-gpgpu_dram_scheduler                    1 # 0 = fifo, 1 = FR-FCFS (defaul)
-gpgpu_dram_partition_queues              8:8:8:8 # i2$:$2d:d2$:$2i
-l2_ideal                               0 # Use a ideal L2 cache that always hit
-gpgpu_cache:dl2     64:128:8,L:B:m:W:L,A:32:4,4:0,32 # unified banked L2 data cache config  {<nsets>:<bsize>:<assoc>,<rep>:<wr>:<alloc>:<wr_alloc>,<mshr>:<N>:<merge>,<mq>}
-gpgpu_cache:dl2_texture_only                    0 # L2 cache used for texture only
-gpgpu_n_mem                            6 # number of memory modules (e.g. memory controllers) in gpu
-gpgpu_n_sub_partition_per_mchannel                    2 # number of memory subpartition in each memory module
-gpgpu_n_mem_per_ctrlr                    2 # number of memory chips per memory controller
-gpgpu_memlatency_stat                   14 # track and display latency statistics 0x2 enables MC, 0x4 enables queue logs
-gpgpu_frfcfs_dram_sched_queue_size                   16 # 0 = unlimited (default); # entries per chip
-gpgpu_dram_return_queue_size                  116 # 0 = unlimited (default); # entries per chip
-gpgpu_dram_buswidth                    4 # default = 4 bytes (8 bytes per cycle at DDR)
-gpgpu_dram_burst_length                    8 # Burst length of each DRAM request (default = 4 data bus cycle)
-dram_data_command_freq_ratio                    4 # Frequency ratio between DRAM data bus and command bus (default = 2 times, i.e. DDR)
-gpgpu_dram_timing_opt nbk=16:CCD=2:RRD=6:RCD=12:RAS=28:RP=12:RC=40: CL=12:WL=4:CDLR=5:WR=12:nbkgrp=4:CCDL=3:RTPL=2 # DRAM timing parameters = {nbk:tCCD:tRRD:tRCD:tRAS:tRP:tRC:CL:WL:tCDLR:tWR:nbkgrp:tCCDL:tRTPL}
-rop_latency                          120 # ROP queue latency (default 85)
-dram_latency                         100 # DRAM latency (default 30)
-gpgpu_mem_addr_mapping dramid@8;00000000.00000000.00000000.00000000.0000RRRR.RRRRRRRR.BBBCCCCB.CCSSSSSS # mapping memory address to dram model {dramid@<start bit>;<memory address map>}
-gpgpu_mem_addr_test                    0 # run sweep test to check address mapping for aliased address
-gpgpu_mem_address_mask                    1 # 0 = old addressing mask, 1 = new addressing mask, 2 = new add. mask + flipped bank sel and chip sel bits
-gpuwattch_xml_file  gpuwattch_gtx480.xml # GPUWattch XML file
-power_simulation_enabled                    1 # Turn on power simulator (1=On, 0=Off)
-power_per_cycle_dump                    0 # Dump detailed power output each cycle
-power_trace_enabled                    0 # produce a file for the power trace (1=On, 0=Off)
-power_trace_zlevel                     6 # Compression level of the power trace output log (0=no comp, 9=highest)
-steady_power_levels_enabled                    0 # produce a file for the steady power levels (1=On, 0=Off)
-steady_state_definition                  8:4 # allowed deviation:number of samples
-gpgpu_max_cycle                        0 # terminates gpu simulation early (0 = no limit)
-gpgpu_max_insn                         0 # terminates gpu simulation early (0 = no limit)
-gpgpu_max_cta                          0 # terminates gpu simulation early (0 = no limit)
-gpgpu_runtime_stat                   500 # display runtime statistics such as dram utilization {<freq>:<flag>}
-liveness_message_freq                    1 # Minimum number of seconds between simulation liveness messages (0 = always print)
-gpgpu_flush_l1_cache                    0 # Flush L1 cache at the end of each kernel call
-gpgpu_flush_l2_cache                    0 # Flush L2 cache at the end of each kernel call
-gpgpu_deadlock_detect                    1 # Stop the simulation at deadlock (1=on (default), 0=off)
-gpgpu_ptx_instruction_classification                    0 # if enabled will classify ptx instruction types per kernel (Max 255 kernels now)
-gpgpu_ptx_sim_mode                     0 # Select between Performance (default) or Functional simulation (1)
-gpgpu_clock_domains 700.0:700.0:700.0:924.0 # Clock Domain Frequencies in MhZ {<Core Clock>:<ICNT Clock>:<L2 Clock>:<DRAM Clock>}
-gpgpu_max_concurrent_kernel                    8 # maximum kernels that can run concurrently on GPU
-gpgpu_cflog_interval                    0 # Interval between each snapshot in control flow logger
-visualizer_enabled                     0 # Turn on visualizer output (1=On, 0=Off)
-visualizer_outputfile                 NULL # Specifies the output log file for visualizer
-visualizer_zlevel                      6 # Compression level of the visualizer output log (0=no comp, 9=highest)
-trace_enabled                          0 # Turn on traces
-trace_components                    none # comma seperated list of traces to enable. Complete list found in trace_streams.tup. Default none
-trace_sampling_core                    0 # The core which is printed using CORE_DPRINTF. Default 0
-trace_sampling_memory_partition                   -1 # The memory partition which is printed using MEMPART_DPRINTF. Default -1 (i.e. all)
-enable_ptx_file_line_stats                    1 # Turn on PTX source line statistic profiling. (1 = On)
-ptx_line_stats_filename gpgpu_inst_stats.txt # Output file for PTX source line statistics.
-save_embedded_ptx                      0 # saves ptx files embedded in binary as <n>.ptx
-keep                                   0 # keep intermediate files created by GPGPU-Sim when interfacing with external programs
-gpgpu_ptx_save_converted_ptxplus                    0 # Saved converted ptxplus to a file
-ptx_opcode_latency_int         4,13,4,5,145 # Opcode latencies for integers <ADD,MAX,MUL,MAD,DIV>Default 1,1,19,25,145
-ptx_opcode_latency_fp          4,13,4,5,39 # Opcode latencies for single precision floating points <ADD,MAX,MUL,MAD,DIV>Default 1,1,1,1,30
-ptx_opcode_latency_dp         8,19,8,8,330 # Opcode latencies for double precision floating points <ADD,MAX,MUL,MAD,DIV>Default 8,8,8,8,335
-ptx_opcode_initiation_int            1,2,2,1,8 # Opcode initiation intervals for integers <ADD,MAX,MUL,MAD,DIV>Default 1,1,4,4,32
-ptx_opcode_initiation_fp            1,2,1,1,4 # Opcode initiation intervals for single precision floating points <ADD,MAX,MUL,MAD,DIV>Default 1,1,1,1,5
-ptx_opcode_initiation_dp         8,16,8,8,130 # Opcode initiation intervals for double precision floating points <ADD,MAX,MUL,MAD,DIV>Default 8,8,8,8,130
DRAM Timing Options:
nbk                                    16 # number of banks
CCD                                     2 # column to column delay
RRD                                     6 # minimal delay between activation of rows in different banks
RCD                                    12 # row to column delay
RAS                                    28 # time needed to activate row
RP                                     12 # time needed to precharge (deactivate) row
RC                                     40 # row cycle time
CDLR                                    5 # switching from write to read (changes tWTR)
WR                                     12 # last data-in to row precharge
CL                                     12 # CAS latency
WL                                      4 # Write latency
nbkgrp                                  4 # number of bank groups
CCDL                                    3 # column to column delay between accesses to different bank groups
RTPL                                    2 # read to precharge delay between accesses to different bank groups
Total number of memory sub partition = 12
addr_dec_mask[CHIP]  = 0000000000000000 	high:64 low:0
addr_dec_mask[BK]    = 000000000000e100 	high:16 low:8
addr_dec_mask[ROW]   = 000000000fff0000 	high:28 low:16
addr_dec_mask[COL]   = 0000000000001eff 	high:13 low:0
addr_dec_mask[BURST] = 000000000000003f 	high:6 low:0
sub_partition_id_mask = 0000000000000100
GPGPU-Sim uArch: clock freqs: 700000000.000000:700000000.000000:700000000.000000:924000000.000000
GPGPU-Sim uArch: clock periods: 0.00000000142857142857:0.00000000142857142857:0.00000000142857142857:0.00000000108225108225
*** Initializing Memory Statistics ***
GPGPU-Sim uArch: interconnect node map (shaderID+MemID to icntID)
GPGPU-Sim uArch: Memory nodes ID start from index: 15
GPGPU-Sim uArch:    0   1   2   3   4
GPGPU-Sim uArch:    5   6   7   8   9
GPGPU-Sim uArch:   10  11  12  13  14
GPGPU-Sim uArch:   15  16  17  18  19
GPGPU-Sim uArch:   20  21  22  23  24
GPGPU-Sim uArch:   25  26
GPGPU-Sim uArch: interconnect node reverse map (icntID to shaderID+MemID)
GPGPU-Sim uArch: Memory nodes start from ID: 15
GPGPU-Sim uArch:    0   1   2   3   4
GPGPU-Sim uArch:    5   6   7   8   9
GPGPU-Sim uArch:   10  11  12  13  14
GPGPU-Sim uArch:   15  16  17  18  19
GPGPU-Sim uArch:   20  21  22  23  24
GPGPU-Sim uArch:   25  26
575cc336cf9f8f0a73559869c93333de  /home/scratch/adwait/applications/benchmarks/CUDA/BFS2/gpgpu_ptx_sim__BFS2
GPGPU-Sim uArch: performance model initialization complete.
GPGPU-Sim PTX: __cudaRegisterFatBinary, fat_cubin_handle = 1, filename=bfs.cu
self exe links to: /home/scratch/adwait/applications/benchmarks/CUDA/BFS2/gpgpu_ptx_sim__BFS2
Running md5sum using "md5sum /home/scratch/adwait/applications/benchmarks/CUDA/BFS2/gpgpu_ptx_sim__BFS2 "
Running cuobjdump using "$CUDA_INSTALL_PATH/bin/cuobjdump -ptx -elf -sass /home/scratch/adwait/applications/benchmarks/CUDA/BFS2/gpgpu_ptx_sim__BFS2 > _cuobjdump_complete_output_9RKdcO"
Parsing file _cuobjdump_complete_output_9RKdcO
######### cuobjdump parser ########
## Adding new section ELF
Adding arch: sm_20
Adding identifier: bfs.cu
## Adding new section PTX
Adding ptx filename: _cuobjdump_1.ptx
Adding arch: sm_20
Adding identifier: bfs.cu
Done parsing!!!
GPGPU-Sim PTX: __cudaRegisterFunction _Z7Kernel2PbS_S_S_i : hostFun 0x0x4017d8, fat_cubin_handle = 1
GPGPU-Sim PTX: instruction assembly for function '_Z6KernelP4NodePiPbS2_S2_S1_i'...   done.
GPGPU-Sim PTX: finding reconvergence points for '_Z6KernelP4NodePiPbS2_S2_S1_i'...
GPGPU-Sim PTX: Finding dominators for '_Z6KernelP4NodePiPbS2_S2_S1_i'...
GPGPU-Sim PTX: Finding immediate dominators for '_Z6KernelP4NodePiPbS2_S2_S1_i'...
GPGPU-Sim PTX: Finding postdominators for '_Z6KernelP4NodePiPbS2_S2_S1_i'...
GPGPU-Sim PTX: Finding immediate postdominators for '_Z6KernelP4NodePiPbS2_S2_S1_i'...
GPGPU-Sim PTX: pre-decoding instructions for '_Z6KernelP4NodePiPbS2_S2_S1_i'...
GPGPU-Sim PTX: reconvergence points for _Z6KernelP4NodePiPbS2_S2_S1_i...
GPGPU-Sim PTX:  1 (potential) branch divergence @  PC=0x030 (_1.ptx:73) @%p1 bra $Lt_0_5122;
GPGPU-Sim PTX:    immediate post dominator      @  PC=0x1c0 (_1.ptx:135) exit;
GPGPU-Sim PTX:  2 (potential) branch divergence @  PC=0x068 (_1.ptx:80) @%p2 bra $Lt_0_5122;
GPGPU-Sim PTX:    immediate post dominator      @  PC=0x1c0 (_1.ptx:135) exit;
GPGPU-Sim PTX:  3 (potential) branch divergence @  PC=0x0c0 (_1.ptx:93) @%p3 bra $Lt_0_5122;
GPGPU-Sim PTX:    immediate post dominator      @  PC=0x1c0 (_1.ptx:135) exit;
GPGPU-Sim PTX:  4 (potential) branch divergence @  PC=0x120 (_1.ptx:108) @%p4 bra $Lt_0_4354;
GPGPU-Sim PTX:    immediate post dominator      @  PC=0x1a0 (_1.ptx:128) add.s32 %r10, %r10, 1;
GPGPU-Sim PTX:  5 (potential) branch divergence @  PC=0x1b8 (_1.ptx:131) @%p5 bra $Lt_0_4098;
GPGPU-Sim PTX:    immediate post dominator      @  PC=0x1c0 (_1.ptx:135) exit;
GPGPU-Sim PTX: ... end of reconvergence points for _Z6KernelP4NodePiPbS2_S2_S1_i
GPGPU-Sim PTX: ... done pre-decoding instructions for '_Z6KernelP4NodePiPbS2_S2_S1_i'.
GPGPU-Sim PTX: instruction assembly for function '_Z7Kernel2PbS_S_S_i'...   done.
GPGPU-Sim PTX: finding reconvergence points for '_Z7Kernel2PbS_S_S_i'...
GPGPU-Sim PTX: Finding dominators for '_Z7Kernel2PbS_S_S_i'...
GPGPU-Sim PTX: Finding immediate dominators for '_Z7Kernel2PbS_S_S_i'...
GPGPU-Sim PTX: Finding postdominators for '_Z7Kernel2PbS_S_S_i'...
GPGPU-Sim PTX: Finding immediate postdominators for '_Z7Kernel2PbS_S_S_i'...
GPGPU-Sim PTX: pre-decoding instructions for '_Z7Kernel2PbS_S_S_i'...
GPGPU-Sim PTX: reconvergence points for _Z7Kernel2PbS_S_S_i...
GPGPU-Sim PTX:  1 (potential) branch divergence @  PC=0x1f8 (_1.ptx:157) @%p1 bra $Lt_1_1794;
GPGPU-Sim PTX:    immediate post dominator      @  PC=0x2a0 (_1.ptx:185) exit;
GPGPU-Sim PTX:  2 (potential) branch divergence @  PC=0x230 (_1.ptx:164) @%p2 bra $Lt_1_1794;
GPGPU-Sim PTX:    immediate post dominator      @  PC=0x2a0 (_1.ptx:185) exit;
GPGPU-Sim PTX: ... end of reconvergence points for _Z7Kernel2PbS_S_S_i
GPGPU-Sim PTX: ... done pre-decoding instructions for '_Z7Kernel2PbS_S_S_i'.
GPGPU-Sim PTX: finished parsing EMBEDDED .ptx file _1.ptx
Adding _cuobjdump_1.ptx with cubin handle 1
GPGPU-Sim PTX: extracting embedded .ptx to temporary file "_ptx_x6PIow"
Running: cat _ptx_x6PIow | sed 's/.version 1.5/.version 1.4/' | sed 's/, texmode_independent//' | sed 's/\(\.extern \.const\[1\] .b8 \w\+\)\[\]/\1\[1\]/' | sed 's/const\[.\]/const\[0\]/g' > _ptx2_lNxxBe
GPGPU-Sim PTX: generating ptxinfo using "$CUDA_INSTALL_PATH/bin/ptxas --gpu-name=sm_20 -v _ptx2_lNxxBe --output-file  /dev/null 2> _ptx_x6PIowinfo"
GPGPU-Sim PTX: Kernel '_Z7Kernel2PbS_S_S_i' : regs=12, lmem=0, smem=0, cmem=68
GPGPU-Sim PTX: Kernel '_Z6KernelP4NodePiPbS2_S2_S1_i' : regs=15, lmem=0, smem=0, cmem=84
GPGPU-Sim PTX: removing ptxinfo using "rm -f _ptx_x6PIow _ptx2_lNxxBe _ptx_x6PIowinfo"
GPGPU-Sim PTX: loading globals with explicit initializers... 
GPGPU-Sim PTX: finished loading globals (0 bytes total).
GPGPU-Sim PTX: loading constants with explicit initializers...  done.
GPGPU-Sim PTX: __cudaRegisterFunction _Z6KernelP4NodePiPbS2_S2_S1_i : hostFun 0x0x40169c, fat_cubin_handle = 1
Input file: ./data/graph32k500kedges_SV.txt
Reading File
Read File
Copied Everything to GPU memory

GPGPU-Sim PTX: cudaLaunch for 0x0x40169c (mode=performance simulation) on stream 0
GPGPU-Sim PTX: pushing kernel '_Z6KernelP4NodePiPbS2_S2_S1_i' to stream 0, gridDim= (63,1,1) blockDim = (512,1,1) 
kernel '_Z6KernelP4NodePiPbS2_S2_S1_i' transfer to GPU hardware scheduler
GPGPU-Sim uArch: Shader 1 bind to kernel 1 '_Z6KernelP4NodePiPbS2_S2_S1_i'
GPGPU-Sim uArch: CTA/core = 3, limited by: threads
GPGPU-Sim uArch: core:  1, cta: 0 initialized @(1,0)
GPGPU-Sim uArch: Shader 2 bind to kernel 1 '_Z6KernelP4NodePiPbS2_S2_S1_i'
GPGPU-Sim uArch: core:  2, cta: 0 initialized @(1,0)
GPGPU-Sim uArch: Shader 3 bind to kernel 1 '_Z6KernelP4NodePiPbS2_S2_S1_i'
GPGPU-Sim uArch: core:  3, cta: 0 initialized @(1,0)
GPGPU-Sim uArch: Shader 4 bind to kernel 1 '_Z6KernelP4NodePiPbS2_S2_S1_i'
GPGPU-Sim uArch: core:  4, cta: 0 initialized @(1,0)
GPGPU-Sim uArch: Shader 5 bind to kernel 1 '_Z6KernelP4NodePiPbS2_S2_S1_i'
GPGPU-Sim uArch: core:  5, cta: 0 initialized @(1,0)
GPGPU-Sim uArch: Shader 6 bind to kernel 1 '_Z6KernelP4NodePiPbS2_S2_S1_i'
GPGPU-Sim uArch: core:  6, cta: 0 initialized @(1,0)
GPGPU-Sim uArch: Shader 7 bind to kernel 1 '_Z6KernelP4NodePiPbS2_S2_S1_i'
GPGPU-Sim uArch: core:  7, cta: 0 initialized @(1,0)
GPGPU-Sim uArch: Shader 8 bind to kernel 1 '_Z6KernelP4NodePiPbS2_S2_S1_i'
GPGPU-Sim uArch: core:  8, cta: 0 initialized @(1,0)
GPGPU-Sim uArch: Shader 9 bind to kernel 1 '_Z6KernelP4NodePiPbS2_S2_S1_i'
GPGPU-Sim uArch: core:  9, cta: 0 initialized @(1,0)
GPGPU-Sim uArch: Shader 10 bind to kernel 1 '_Z6KernelP4NodePiPbS2_S2_S1_i'
GPGPU-Sim uArch: core: 10, cta: 0 initialized @(1,0)
GPGPU-Sim uArch: Shader 11 bind to kernel 1 '_Z6KernelP4NodePiPbS2_S2_S1_i'
GPGPU-Sim uArch: core: 11, cta: 0 initialized @(1,0)
GPGPU-Sim uArch: Shader 12 bind to kernel 1 '_Z6KernelP4NodePiPbS2_S2_S1_i'
GPGPU-Sim uArch: core: 12, cta: 0 initialized @(1,0)
GPGPU-Sim uArch: Shader 13 bind to kernel 1 '_Z6KernelP4NodePiPbS2_S2_S1_i'
GPGPU-Sim uArch: core: 13, cta: 0 initialized @(1,0)
GPGPU-Sim uArch: Shader 14 bind to kernel 1 '_Z6KernelP4NodePiPbS2_S2_S1_i'
GPGPU-Sim uArch: core: 14, cta: 0 initialized @(1,0)
GPGPU-Sim uArch: Shader 0 bind to kernel 1 '_Z6KernelP4NodePiPbS2_S2_S1_i'
GPGPU-Sim uArch: core:  0, cta: 0 initialized @(1,0)
GPGPU-Sim uArch: core:  1, cta: 1 initialized @(2,0)
GPGPU-Sim uArch: core:  2, cta: 1 initialized @(2,0)
GPGPU-Sim uArch: core:  3, cta: 1 initialized @(2,0)
GPGPU-Sim uArch: core:  4, cta: 1 initialized @(2,0)
GPGPU-Sim uArch: core:  5, cta: 1 initialized @(2,0)
GPGPU-Sim uArch: core:  6, cta: 1 initialized @(2,0)
GPGPU-Sim uArch: core:  7, cta: 1 initialized @(2,0)
GPGPU-Sim uArch: core:  8, cta: 1 initialized @(2,0)
GPGPU-Sim uArch: core:  9, cta: 1 initialized @(2,0)
GPGPU-Sim uArch: core: 10, cta: 1 initialized @(2,0)
GPGPU-Sim uArch: core: 11, cta: 1 initialized @(2,0)
GPGPU-Sim uArch: core: 12, cta: 1 initialized @(2,0)
GPGPU-Sim uArch: core: 13, cta: 1 initialized @(2,0)
GPGPU-Sim uArch: core: 14, cta: 1 initialized @(2,0)
GPGPU-Sim uArch: core:  0, cta: 1 initialized @(2,0)
GPGPU-Sim uArch: core:  1, cta: 2 initialized @(3,0)
GPGPU-Sim uArch: core:  2, cta: 2 initialized @(3,0)
GPGPU-Sim uArch: core:  3, cta: 2 initialized @(3,0)
GPGPU-Sim uArch: core:  4, cta: 2 initialized @(3,0)
GPGPU-Sim uArch: core:  5, cta: 2 initialized @(3,0)
GPGPU-Sim uArch: core:  6, cta: 2 initialized @(3,0)
GPGPU-Sim uArch: core:  7, cta: 2 initialized @(3,0)
GPGPU-Sim uArch: core:  8, cta: 2 initialized @(3,0)
GPGPU-Sim uArch: core:  9, cta: 2 initialized @(3,0)
GPGPU-Sim uArch: core: 10, cta: 2 initialized @(3,0)
GPGPU-Sim uArch: core: 11, cta: 2 initialized @(3,0)
GPGPU-Sim uArch: core: 12, cta: 2 initialized @(3,0)
GPGPU-Sim uArch: core: 13, cta: 2 initialized @(3,0)
GPGPU-Sim uArch: core: 14, cta: 2 initialized @(3,0)
GPGPU-Sim uArch: core:  0, cta: 2 initialized @(3,0)
GPGPU-Sim PTX: 100000 instructions simulated : ctaid=(22,0,0) tid=(447,0,0)
GPGPU-Sim uArch: cycles simulated: 500  inst.: 92000 (ipc=184.0) sim_rate=30666 (inst/sec) elapsed = 0:0:00:03 / Tue Apr 16 16:51:50 2019
GPGPU-Sim PTX: 200000 instructions simulated : ctaid=(26,0,0) tid=(415,0,0)
GPGPU-Sim uArch: cycles simulated: 1000  inst.: 240449 (ipc=240.4) sim_rate=60112 (inst/sec) elapsed = 0:0:00:04 / Tue Apr 16 16:51:51 2019
GPGPU-Sim PTX: 300000 instructions simulated : ctaid=(16,0,0) tid=(381,0,0)
GPGPU-Sim uArch: Shader 0 finished CTA #0 (1275,0), 2 CTAs running
GPGPU-Sim uArch: core:  0, cta: 0 initialized @(1276,0)
GPGPU-Sim uArch: Shader 3 finished CTA #0 (1277,0), 2 CTAs running
GPGPU-Sim uArch: core:  3, cta: 0 initialized @(1278,0)
GPGPU-Sim uArch: Shader 3 finished CTA #2 (1285,0), 2 CTAs running
GPGPU-Sim uArch: core:  3, cta: 2 initialized @(1286,0)
GPGPU-Sim uArch: Shader 4 finished CTA #0 (1291,0), 2 CTAs running
GPGPU-Sim uArch: core:  4, cta: 0 initialized @(1292,0)
GPGPU-Sim uArch: Shader 0 finished CTA #1 (1295,0), 2 CTAs running
GPGPU-Sim uArch: Shader 0 finished CTA #2 (1295,0), 1 CTAs running
GPGPU-Sim uArch: core:  0, cta: 1 initialized @(1296,0)
GPGPU-Sim uArch: core:  0, cta: 2 initialized @(1297,0)
GPGPU-Sim uArch: Shader 2 finished CTA #0 (1297,0), 2 CTAs running
GPGPU-Sim uArch: Shader 2 finished CTA #1 (1297,0), 1 CTAs running
GPGPU-Sim uArch: core:  2, cta: 0 initialized @(1298,0)
GPGPU-Sim uArch: core:  2, cta: 1 initialized @(1299,0)
GPGPU-Sim uArch: Shader 3 finished CTA #1 (1301,0), 2 CTAs running
GPGPU-Sim uArch: core:  3, cta: 1 initialized @(1302,0)
GPGPU-Sim uArch: Shader 5 finished CTA #0 (1303,0), 2 CTAs running
GPGPU-Sim uArch: core:  5, cta: 0 initialized @(1304,0)
GPGPU-Sim uArch: Shader 4 finished CTA #1 (1308,0), 2 CTAs running
GPGPU-Sim uArch: Shader 4 finished CTA #2 (1308,0), 1 CTAs running
GPGPU-Sim uArch: core:  4, cta: 1 initialized @(1309,0)
GPGPU-Sim uArch: Shader 1 finished CTA #1 (1309,0), 2 CTAs running
GPGPU-Sim uArch: core:  1, cta: 1 initialized @(1310,0)
GPGPU-Sim uArch: core:  4, cta: 2 initialized @(1310,0)
GPGPU-Sim uArch: Shader 6 finished CTA #0 (1315,0), 2 CTAs running
GPGPU-Sim uArch: core:  6, cta: 0 initialized @(1316,0)
GPGPU-Sim uArch: Shader 5 finished CTA #1 (1320,0), 2 CTAs running
GPGPU-Sim uArch: Shader 5 finished CTA #2 (1320,0), 1 CTAs running
GPGPU-Sim uArch: core:  5, cta: 1 initialized @(1321,0)
GPGPU-Sim uArch: Shader 11 finished CTA #0 (1321,0), 2 CTAs running
GPGPU-Sim uArch: Shader 11 finished CTA #1 (1321,0), 1 CTAs running
GPGPU-Sim uArch: core: 11, cta: 0 initialized @(1322,0)
GPGPU-Sim uArch: core:  5, cta: 2 initialized @(1322,0)
GPGPU-Sim uArch: core: 11, cta: 1 initialized @(1323,0)
GPGPU-Sim uArch: Shader 1 finished CTA #2 (1326,0), 2 CTAs running
GPGPU-Sim uArch: Shader 7 finished CTA #2 (1327,0), 2 CTAs running
GPGPU-Sim uArch: Shader 7 finished CTA #0 (1327,0), 1 CTAs running
GPGPU-Sim uArch: Shader 2 finished CTA #2 (1330,0), 2 CTAs running
GPGPU-Sim uArch: Shader 6 finished CTA #1 (1332,0), 2 CTAs running
GPGPU-Sim uArch: Shader 6 finished CTA #2 (1332,0), 1 CTAs running
GPGPU-Sim uArch: Shader 8 finished CTA #0 (1333,0), 2 CTAs running
GPGPU-Sim uArch: Shader 7 finished CTA #1 (1334,0), 0 CTAs running
GPGPU-Sim uArch: Shader 7 empty (release kernel 1 '_Z6KernelP4NodePiPbS2_S2_S1_i').
GPGPU-Sim uArch: Shader 8 finished CTA #1 (1336,0), 1 CTAs running
GPGPU-Sim uArch: Shader 9 finished CTA #0 (1339,0), 2 CTAs running
GPGPU-Sim uArch: Shader 9 finished CTA #1 (1339,0), 1 CTAs running
GPGPU-Sim uArch: Shader 8 finished CTA #2 (1340,0), 0 CTAs running
GPGPU-Sim uArch: Shader 8 empty (release kernel 1 '_Z6KernelP4NodePiPbS2_S2_S1_i').
GPGPU-Sim uArch: Shader 10 finished CTA #0 (1345,0), 2 CTAs running
GPGPU-Sim uArch: Shader 9 finished CTA #2 (1346,0), 0 CTAs running
GPGPU-Sim uArch: Shader 9 empty (release kernel 1 '_Z6KernelP4NodePiPbS2_S2_S1_i').
GPGPU-Sim uArch: Shader 10 finished CTA #1 (1348,0), 1 CTAs running
GPGPU-Sim uArch: Shader 12 finished CTA #0 (1351,0), 2 CTAs running
GPGPU-Sim uArch: Shader 10 finished CTA #2 (1352,0), 0 CTAs running
GPGPU-Sim uArch: Shader 10 empty (release kernel 1 '_Z6KernelP4NodePiPbS2_S2_S1_i').
GPGPU-Sim uArch: Shader 12 finished CTA #1 (1352,0), 1 CTAs running
GPGPU-Sim uArch: Shader 11 finished CTA #2 (1354,0), 2 CTAs running
GPGPU-Sim uArch: Shader 13 finished CTA #0 (1357,0), 2 CTAs running
GPGPU-Sim uArch: Shader 12 finished CTA #2 (1358,0), 0 CTAs running
GPGPU-Sim uArch: Shader 12 empty (release kernel 1 '_Z6KernelP4NodePiPbS2_S2_S1_i').
GPGPU-Sim uArch: Shader 13 finished CTA #1 (1360,0), 1 CTAs running
GPGPU-Sim uArch: Shader 14 finished CTA #0 (1363,0), 2 CTAs running
GPGPU-Sim uArch: Shader 14 finished CTA #1 (1363,0), 1 CTAs running
GPGPU-Sim uArch: Shader 13 finished CTA #2 (1364,0), 0 CTAs running
GPGPU-Sim uArch: Shader 13 empty (release kernel 1 '_Z6KernelP4NodePiPbS2_S2_S1_i').
GPGPU-Sim uArch: Shader 14 finished CTA #2 (1370,0), 0 CTAs running
GPGPU-Sim uArch: Shader 14 empty (release kernel 1 '_Z6KernelP4NodePiPbS2_S2_S1_i').
GPGPU-Sim PTX: 400000 instructions simulated : ctaid=(55,0,0) tid=(89,0,0)
GPGPU-Sim uArch: cycles simulated: 1500  inst.: 393732 (ipc=262.5) sim_rate=78746 (inst/sec) elapsed = 0:0:00:05 / Tue Apr 16 16:51:52 2019
GPGPU-Sim uArch: Shader 1 finished CTA #1 (1711,0), 1 CTAs running
GPGPU-Sim uArch: Shader 6 finished CTA #0 (1721,0), 0 CTAs running
GPGPU-Sim uArch: Shader 6 empty (release kernel 1 '_Z6KernelP4NodePiPbS2_S2_S1_i').
GPGPU-Sim uArch: Shader 2 finished CTA #0 (1761,0), 1 CTAs running
GPGPU-Sim uArch: Shader 0 finished CTA #0 (1773,0), 2 CTAs running
GPGPU-Sim uArch: Shader 11 finished CTA #0 (1791,0), 1 CTAs running
GPGPU-Sim uArch: Shader 3 finished CTA #0 (1798,0), 2 CTAs running
GPGPU-Sim uArch: Shader 11 finished CTA #1 (1798,0), 0 CTAs running
GPGPU-Sim uArch: Shader 11 empty (release kernel 1 '_Z6KernelP4NodePiPbS2_S2_S1_i').
GPGPU-Sim uArch: Shader 4 finished CTA #0 (1800,0), 2 CTAs running
GPGPU-Sim uArch: Shader 2 finished CTA #1 (1807,0), 0 CTAs running
GPGPU-Sim uArch: Shader 2 empty (release kernel 1 '_Z6KernelP4NodePiPbS2_S2_S1_i').
GPGPU-Sim uArch: Shader 5 finished CTA #0 (1812,0), 2 CTAs running
GPGPU-Sim uArch: Shader 0 finished CTA #1 (1838,0), 1 CTAs running
GPGPU-Sim uArch: Shader 3 finished CTA #2 (1844,0), 1 CTAs running
GPGPU-Sim uArch: Shader 4 finished CTA #1 (1854,0), 1 CTAs running
GPGPU-Sim uArch: Shader 5 finished CTA #1 (1865,0), 1 CTAs running
GPGPU-Sim uArch: Shader 0 finished CTA #2 (1898,0), 0 CTAs running
GPGPU-Sim uArch: Shader 0 empty (release kernel 1 '_Z6KernelP4NodePiPbS2_S2_S1_i').
GPGPU-Sim uArch: Shader 3 finished CTA #1 (1907,0), 0 CTAs running
GPGPU-Sim uArch: Shader 3 empty (release kernel 1 '_Z6KernelP4NodePiPbS2_S2_S1_i').
GPGPU-Sim uArch: Shader 4 finished CTA #2 (1910,0), 0 CTAs running
GPGPU-Sim uArch: Shader 4 empty (release kernel 1 '_Z6KernelP4NodePiPbS2_S2_S1_i').
GPGPU-Sim uArch: Shader 5 finished CTA #2 (1924,0), 0 CTAs running
GPGPU-Sim uArch: Shader 5 empty (release kernel 1 '_Z6KernelP4NodePiPbS2_S2_S1_i').
GPGPU-Sim uArch: cycles simulated: 6500  inst.: 450290 (ipc=69.3) sim_rate=75048 (inst/sec) elapsed = 0:0:00:06 / Tue Apr 16 16:51:53 2019
GPGPU-Sim uArch: Shader 1 finished CTA #0 (8375,0), 0 CTAs running
GPGPU-Sim uArch: Shader 1 empty (release kernel 1 '_Z6KernelP4NodePiPbS2_S2_S1_i').
GPGPU-Sim uArch: GPU detected kernel '_Z6KernelP4NodePiPbS2_S2_S1_i' finished on shader 1.
kernel_name = _Z6KernelP4NodePiPbS2_S2_S1_i 
kernel_launch_uid = 1 
gpu_sim_cycle = 8376
gpu_sim_insn = 450436
gpu_ipc =      53.7770
gpu_tot_sim_cycle = 8376
gpu_tot_sim_insn = 450436
gpu_tot_ipc =      53.7770
gpu_tot_issued_cta = 0
gpu_stall_dramfull = 298
gpu_stall_icnt2sh    = 167
gpu_total_sim_rate=75072

========= Core cache stats =========
L1I_cache:
	L1I_total_cache_accesses = 10218
	L1I_total_cache_misses = 962
	L1I_total_cache_miss_rate = 0.0941
	L1I_total_cache_pending_hits = 0
	L1I_total_cache_reservation_fails = 6744
L1D_cache:
	L1D_cache_core[0]: Access = 96, Miss = 24, Miss_rate = 0.250, Pending_hits = 72, Reservation_fails = 0
	L1D_cache_core[1]: Access = 172, Miss = 63, Miss_rate = 0.366, Pending_hits = 48, Reservation_fails = 0
	L1D_cache_core[2]: Access = 80, Miss = 20, Miss_rate = 0.250, Pending_hits = 60, Reservation_fails = 0
	L1D_cache_core[3]: Access = 96, Miss = 24, Miss_rate = 0.250, Pending_hits = 72, Reservation_fails = 0
	L1D_cache_core[4]: Access = 96, Miss = 24, Miss_rate = 0.250, Pending_hits = 72, Reservation_fails = 0
	L1D_cache_core[5]: Access = 96, Miss = 24, Miss_rate = 0.250, Pending_hits = 72, Reservation_fails = 0
	L1D_cache_core[6]: Access = 64, Miss = 16, Miss_rate = 0.250, Pending_hits = 48, Reservation_fails = 0
	L1D_cache_core[7]: Access = 48, Miss = 12, Miss_rate = 0.250, Pending_hits = 36, Reservation_fails = 0
	L1D_cache_core[8]: Access = 48, Miss = 12, Miss_rate = 0.250, Pending_hits = 36, Reservation_fails = 0
	L1D_cache_core[9]: Access = 48, Miss = 12, Miss_rate = 0.250, Pending_hits = 36, Reservation_fails = 0
	L1D_cache_core[10]: Access = 48, Miss = 12, Miss_rate = 0.250, Pending_hits = 36, Reservation_fails = 0
	L1D_cache_core[11]: Access = 72, Miss = 18, Miss_rate = 0.250, Pending_hits = 54, Reservation_fails = 0
	L1D_cache_core[12]: Access = 48, Miss = 12, Miss_rate = 0.250, Pending_hits = 36, Reservation_fails = 0
	L1D_cache_core[13]: Access = 48, Miss = 12, Miss_rate = 0.250, Pending_hits = 36, Reservation_fails = 0
	L1D_cache_core[14]: Access = 48, Miss = 12, Miss_rate = 0.250, Pending_hits = 36, Reservation_fails = 0
	L1D_total_cache_accesses = 1108
	L1D_total_cache_misses = 297
	L1D_total_cache_miss_rate = 0.2681
	L1D_total_cache_pending_hits = 750
	L1D_total_cache_reservation_fails = 0
	L1D_cache_data_port_util = 0.002
	L1D_cache_fill_port_util = 0.009
L1C_cache:
	L1C_total_cache_accesses = 2041
	L1C_total_cache_misses = 480
	L1C_total_cache_miss_rate = 0.2352
	L1C_total_cache_pending_hits = 0
	L1C_total_cache_reservation_fails = 3411
L1T_cache:
	L1T_total_cache_accesses = 0
	L1T_total_cache_misses = 0
	L1T_total_cache_pending_hits = 0
	L1T_total_cache_reservation_fails = 0

Total_core_cache_stats:
	Total_core_cache_stats_breakdown[GLOBAL_ACC_R][HIT] = 60
	Total_core_cache_stats_breakdown[GLOBAL_ACC_R][HIT_RESERVED] = 750
	Total_core_cache_stats_breakdown[GLOBAL_ACC_R][MISS] = 267
	Total_core_cache_stats_breakdown[CONST_ACC_R][HIT] = 1561
	Total_core_cache_stats_breakdown[CONST_ACC_R][MISS] = 480
	Total_core_cache_stats_breakdown[CONST_ACC_R][RESERVATION_FAIL] = 3411
	Total_core_cache_stats_breakdown[GLOBAL_ACC_W][HIT] = 1
	Total_core_cache_stats_breakdown[GLOBAL_ACC_W][MISS] = 30
	Total_core_cache_stats_breakdown[INST_ACC_R][HIT] = 9256
	Total_core_cache_stats_breakdown[INST_ACC_R][MISS] = 962
	Total_core_cache_stats_breakdown[INST_ACC_R][RESERVATION_FAIL] = 6744
Shader 0 warp_id issue ditsribution:
warp_id:
0, 1, 2, 3, 4, 5, 6, 7, 8, 9, 10, 11, 12, 13, 14, 15, 16, 17, 18, 19, 20, 21, 22, 23, 24, 25, 26, 27, 28, 29, 30, 31, 32, 33, 34, 35, 36, 37, 38, 39, 40, 41, 42, 43, 44, 45, 46, 47, 
distro:
30, 30, 30, 30, 30, 30, 30, 30, 30, 30, 30, 30, 30, 30, 30, 30, 30, 30, 30, 30, 30, 30, 30, 30, 30, 30, 30, 30, 30, 30, 30, 30, 30, 30, 30, 30, 30, 30, 30, 30, 30, 30, 30, 30, 30, 30, 30, 30, 
gpgpu_n_tot_thrd_icount = 495040
gpgpu_n_tot_w_icount = 15470
gpgpu_n_stall_shd_mem = 3411
gpgpu_n_mem_read_local = 0
gpgpu_n_mem_write_local = 0
gpgpu_n_mem_read_global = 267
gpgpu_n_mem_write_global = 31
gpgpu_n_mem_texture = 0
gpgpu_n_mem_const = 15
gpgpu_n_load_insn  = 32077
gpgpu_n_store_insn = 31
gpgpu_n_shmem_insn = 0
gpgpu_n_tex_insn = 0
gpgpu_n_const_mem_insn = 0
gpgpu_n_param_mem_insn = 64289
gpgpu_n_shmem_bkconflict = 0
gpgpu_n_cache_bkconflict = 0
gpgpu_n_intrawarp_mshr_merge = 0
gpgpu_n_cmem_portconflict = 3411
gpgpu_stall_shd_mem[c_mem][bk_conf] = 3411
gpgpu_stall_shd_mem[c_mem][mshr_rc] = 0
gpgpu_stall_shd_mem[c_mem][icnt_rc] = 0
gpgpu_stall_shd_mem[c_mem][data_port_stall] = 0
gpgpu_stall_shd_mem[t_mem][mshr_rc] = 0
gpgpu_stall_shd_mem[t_mem][icnt_rc] = 0
gpgpu_stall_shd_mem[t_mem][data_port_stall] = 0
gpgpu_stall_shd_mem[s_mem][bk_conf] = 0
gpgpu_stall_shd_mem[gl_mem][bk_conf] = 0
gpgpu_stall_shd_mem[gl_mem][coal_stall] = 0
gpgpu_stall_shd_mem[gl_mem][data_port_stall] = 0
gpgpu_stall_shd_mem[g_mem_ld][mshr_rc] = 0
gpgpu_stall_shd_mem[g_mem_ld][icnt_rc] = 0
gpgpu_stall_shd_mem[g_mem_ld][wb_icnt_rc] = 0
gpgpu_stall_shd_mem[g_mem_ld][wb_rsrv_fail] = 0
gpgpu_stall_shd_mem[g_mem_st][mshr_rc] = 0
gpgpu_stall_shd_mem[g_mem_st][icnt_rc] = 0
gpgpu_stall_shd_mem[g_mem_st][wb_icnt_rc] = 0
gpgpu_stall_shd_mem[g_mem_st][wb_rsrv_fail] = 0
gpgpu_stall_shd_mem[l_mem_ld][mshr_rc] = 0
gpgpu_stall_shd_mem[l_mem_ld][icnt_rc] = 0
gpgpu_stall_shd_mem[l_mem_ld][wb_icnt_rc] = 0
gpgpu_stall_shd_mem[l_mem_ld][wb_rsrv_fail] = 0
gpgpu_stall_shd_mem[l_mem_st][mshr_rc] = 0
gpgpu_stall_shd_mem[l_mem_st][icnt_rc] = 0
gpgpu_stall_shd_mem[l_mem_ld][wb_icnt_rc] = 0
gpgpu_stall_shd_mem[l_mem_ld][wb_rsrv_fail] = 0
gpu_reg_bank_conflict_stalls = 0
Warp Occupancy Distribution:
Stall:6887	W0_Idle:22001	W0_Scoreboard:17280	W1:406	W2:0	W3:0	W4:0	W5:0	W6:0	W7:0	W8:0	W9:0	W10:0	W11:0	W12:0	W13:0	W14:0	W15:0	W16:0	W17:0	W18:0	W19:0	W20:0	W21:0	W22:0	W23:0	W24:0	W25:0	W26:0	W27:0	W28:0	W29:0	W30:0	W31:0	W32:15064
traffic_breakdown_coretomem[CONST_ACC_R] = 120 {8:15,}
traffic_breakdown_coretomem[GLOBAL_ACC_R] = 2136 {8:267,}
traffic_breakdown_coretomem[GLOBAL_ACC_W] = 1240 {40:31,}
traffic_breakdown_coretomem[INST_ACC_R] = 256 {8:32,}
traffic_breakdown_memtocore[CONST_ACC_R] = 1080 {72:15,}
traffic_breakdown_memtocore[GLOBAL_ACC_R] = 36312 {136:267,}
traffic_breakdown_memtocore[GLOBAL_ACC_W] = 248 {8:31,}
traffic_breakdown_memtocore[INST_ACC_R] = 4352 {136:32,}
maxmrqlatency = 22 
maxdqlatency = 0 
maxmflatency = 290 
averagemflatency = 264 
max_icnt2mem_latency = 36 
max_icnt2sh_latency = 8375 
mrq_lat_table:235 	12 	50 	26 	7 	0 	0 	0 	0 	0 	0 	0 	0 	0 	0 	0 	0 	0 	0 	0 	0 	0 	0 	0 	0 	0 	0 	0 	0 	0 	0 	0 	
dq_lat_table:0 	0 	0 	0 	0 	0 	0 	0 	0 	0 	0 	0 	0 	0 	0 	0 	0 	0 	0 	0 	0 	0 	0 	0 	0 	0 	0 	0 	0 	0 	0 	0 	
mf_lat_table:0 	0 	0 	0 	0 	0 	0 	36 	277 	0 	0 	0 	0 	0 	0 	0 	0 	0 	0 	0 	0 	0 	0 	0 	0 	0 	0 	0 	0 	0 	0 	0 	
icnt2mem_lat_table:0 	0 	0 	334 	8 	3 	0 	0 	0 	0 	0 	0 	0 	0 	0 	0 	0 	0 	0 	0 	0 	0 	0 	0 	
icnt2sh_lat_table:0 	0 	0 	205 	76 	1 	0 	0 	0 	0 	1 	6 	22 	2 	0 	0 	0 	0 	0 	0 	0 	0 	0 	0 	
mf_lat_pw_table:0 	0 	0 	0 	0 	0 	0 	9 	6 	0 	0 	0 	0 	0 	0 	0 	0 	0 	0 	0 	0 	0 	0 	0 	0 	0 	0 	0 	0 	0 	0 	0 	
maximum concurrent accesses to same row:
dram[0]:         1         0         0         0         0         0         0         0         0         0         0         0         0         0         0         0 
dram[1]:         0         0         0         0         0         0         0         0         0         0         0         0         0         0         0         0 
dram[2]:         0         0         0         0         0         1         0         0         0         0         0         0         0         0         0         0 
dram[3]:         0         0         0         0         0         0         0         0         0         0         0         0         0         0         0         0 
dram[4]:         0         0         0         0         0         0         0         0         0         0         0         0         0         0         0         0 
dram[5]:         0         0         0         0         0         0         0         0         0         0         0         0         0         0         0         0 
maximum service time to same row:
dram[0]:       621         0       949       951      1119      1637      2751      5441         0      7547      8344         0         0         0      1899         0 
dram[1]:      1197         0       915       938      1029      1747      3924         0         0         0      3050         0         0         0         0         0 
dram[2]:         0         0       938       954      1066      1576         0      3521      7154         0         0         0         0         0         0         0 
dram[3]:         0         0       916       935      1668      1691         0      3118         0      6622         0      5835         0         0         0         0 
dram[4]:         0         0       943       963      1678      1701         0      2444      3856         0         0         0         0         0         0         0 
dram[5]:         0         0       925       919      1624      1750         0      7616         0         0      7950      3453         0         0         0         0 
average row accesses per activate:
dram[0]:  1.000000      -nan 14.000000 14.000000  8.000000 11.000000  4.000000  2.000000      -nan  2.000000  2.000000      -nan      -nan      -nan  1.000000      -nan 
dram[1]:  2.000000      -nan 14.000000 14.000000 10.000000  9.000000  4.000000      -nan      -nan      -nan  4.000000      -nan      -nan      -nan      -nan      -nan 
dram[2]:      -nan      -nan 14.000000 14.000000  8.000000  6.000000      -nan  3.000000  2.000000      -nan      -nan      -nan      -nan      -nan      -nan      -nan 
dram[3]:      -nan      -nan 14.000000 16.000000 10.000000  6.000000      -nan  2.000000      -nan  2.000000      -nan  2.000000      -nan      -nan      -nan      -nan 
dram[4]:      -nan      -nan 14.000000 16.000000 11.000000  7.000000      -nan  1.000000  2.000000      -nan      -nan      -nan      -nan      -nan      -nan      -nan 
dram[5]:      -nan      -nan 14.000000 16.000000 10.000000  9.000000      -nan  1.000000      -nan      -nan  2.000000  4.000000      -nan      -nan      -nan      -nan 
average row locality = 330/46 = 7.173913
number of total memory accesses made:
dram[0]:         0         0         0         0         0         0         0         0         0         0         0         0         0         0         0         0 
dram[1]:         0         0         0         0         0         0         0         0         0         0         0         0         0         0         0         0 
dram[2]:         0         0         0         0         0         0         0         0         0         0         0         0         0         0         0         0 
dram[3]:         0         0         0         0         0         0         0         0         0         0         0         0         0         0         0         0 
dram[4]:         0         0         0         0         0         0         0         0         0         0         0         0         0         0         0         0 
dram[5]:         0         0         0         0         0         0         0         0         0         0         0         0         0         0         0         0 
total accesses: 0
min_bank_accesses = 0!
min_chip_accesses = 0!
number of total read accesses:
dram[0]:         3         0        14        14         8         9         3         1         0         1         1         0         0         0         1         0 
dram[1]:         2         0        14        14         9         8         3         0         0         0         2         0         0         0         0         0 
dram[2]:         0         0        14        14         7        10         0         2         1         0         0         0         0         0         0         0 
dram[3]:         0         0        14        16         8         6         0         2         0         1         0         1         0         0         0         0 
dram[4]:         0         0        14        16         9         7         0         1         1         0         0         0         0         0         0         0 
dram[5]:         0         0        14        16         8         8         0         1         0         0         1         2         0         0         0         0 
total reads: 301
min_bank_accesses = 0!
chip skew: 55/48 = 1.15
number of total write accesses:
dram[0]:         0         0         0         0         0         2         1         1         0         1         1         0         0         0         0         0 
dram[1]:         0         0         0         0         1         1         1         0         0         0         2         0         0         0         0         0 
dram[2]:         0         0         0         0         1         2         0         1         1         0         0         0         0         0         0         0 
dram[3]:         0         0         0         0         2         0         0         0         0         1         0         1         0         0         0         0 
dram[4]:         0         0         0         0         2         0         0         0         1         0         0         0         0         0         0         0 
dram[5]:         0         0         0         0         2         1         0         0         0         0         1         2         0         0         0         0 
total reads: 29
min_bank_accesses = 0!
chip skew: 6/3 = 2.00
average mf latency per bank:
dram[0]:       1314    none         263       268       264       211       193       126    none         126       126    none      none      none         268    none  
dram[1]:          0    none         264       269       237       233       193    none      none      none         124    none      none      none      none      none  
dram[2]:     none      none         263       272       228       221    none         171       126    none      none      none      none      none      none      none  
dram[3]:     none      none         263       280       206       274    none         263    none         126    none         126    none      none      none      none  
dram[4]:     none      none         261       268       225       275    none         268       126    none      none      none      none      none      none      none  
dram[5]:     none      none         262       265       207       238    none         268    none      none         126       124    none      none      none      none  
maximum mf latency per bank:
dram[0]:        283         0       271       290       272       268       268       252         0       252       252         0         0         0       268         0
dram[1]:          0         0       281       285       289       275       268         0         0         0       252         0         0         0         0         0
dram[2]:          0         0       277       282       271       283         0       268       252         0         0         0         0         0         0         0
dram[3]:          0         0       272       283       268       280         0       268         0       252         0       252         0         0         0         0
dram[4]:          0         0       271       287       276       282         0       268       252         0         0         0         0         0         0         0
dram[5]:          0         0       269       277       268       286         0       268         0         0       252       252         0         0         0         0

Number of Memory Banks Accessed per Memory Operation per Warp (from 0):
0	0	0	0	0	0	0	0	0	0	0	0	0	0	0	0	0	0	0	0	0	0	0	0	0	0	0	0	0	0	0	0	0	0	0	0	0	0	0	0	0	0	0	0	0	0	0	0	0	0	0	0	0	0	0	0	0	0	0	0	0	0	0	0	0	0	0	0	0	0	0	0	0	0	0	0	0	0	0	0	0	0	0	0	0	0	0	0	0	0	0	0	0	0	0	0	
Average # of Memory Banks Accessed per Memory Operation per Warp=-nan

position of mrq chosen
0	0	0	0	0	0	0	0	0	0	0	0	0	0	0	0	

average position of mrq chosen = -nan
Memory Partition 0: 
Cache L2_bank_000:
MSHR contents

Cache L2_bank_001:
MSHR contents

In Dram Latency Queue (total = 0): 
DRAM[0]: 16 bks, busW=4 BL=8 CL=12, tRRD=2 tCCD=6, tRCD=12 tRAS=28 tRP=12 tRC=40
n_cmd=11056 n_nop=10926 n_act=12 n_pre=2 n_req=61 n_rd=110 n_write=6 bw_util=0.02098
n_activity=849 dram_eff=0.2733
bk0: 6a 10985i bk1: 0a 11055i bk2: 28a 10971i bk3: 28a 10913i bk4: 16a 11008i bk5: 18a 10976i bk6: 6a 11020i bk7: 2a 11032i bk8: 0a 11054i bk9: 2a 11031i bk10: 2a 11031i bk11: 0a 11054i bk12: 0a 11055i bk13: 0a 11055i bk14: 2a 11041i bk15: 0a 11057i 
dram_util_bins: 0 0 0 0 0 0 0 0 0 0
dram_eff_bins: 0 0 0 0 0 0 0 0 0 0
mrqq: max=2 avg=0.00868307
Memory Partition 1: 
Cache L2_bank_002:
MSHR contents

Cache L2_bank_003:
MSHR contents

In Dram Latency Queue (total = 0): 
DRAM[1]: 16 bks, busW=4 BL=8 CL=12, tRRD=2 tCCD=6, tRCD=12 tRAS=28 tRP=12 tRC=40
n_cmd=11056 n_nop=10940 n_act=7 n_pre=0 n_req=57 n_rd=104 n_write=5 bw_util=0.01972
n_activity=651 dram_eff=0.3349
bk0: 4a 11036i bk1: 0a 11057i bk2: 28a 10972i bk3: 28a 10928i bk4: 18a 10964i bk5: 16a 10995i bk6: 6a 11021i bk7: 0a 11056i bk8: 0a 11056i bk9: 0a 11056i bk10: 4a 11018i bk11: 0a 11054i bk12: 0a 11054i bk13: 0a 11055i bk14: 0a 11055i bk15: 0a 11057i 
dram_util_bins: 0 0 0 0 0 0 0 0 0 0
dram_eff_bins: 0 0 0 0 0 0 0 0 0 0
mrqq: max=3 avg=0.0119392
Memory Partition 2: 
Cache L2_bank_004:
MSHR contents

Cache L2_bank_005:
MSHR contents
MSHR: tag=0x80240c00, atomic=0 1 entries : 0x7f7687a006f0 :  mf: uid= 23551, sid01:w00, part=2, addr=0x80240c20, load , size=32, unknown  status = IN_PARTITION_DRAM (8373), 

In Dram Latency Queue (total = 0): 
DRAM[2]: 16 bks, busW=4 BL=8 CL=12, tRRD=2 tCCD=6, tRCD=12 tRAS=28 tRP=12 tRC=40
n_cmd=11056 n_nop=10947 n_act=7 n_pre=1 n_req=53 n_rd=96 n_write=5 bw_util=0.01827
n_activity=588 dram_eff=0.3435
bk0: 0a 11057i bk1: 0a 11059i bk2: 28a 10977i bk3: 28a 10914i bk4: 14a 10995i bk5: 20a 10944i bk6: 0a 11055i bk7: 4a 11023i bk8: 2a 11030i bk9: 0a 11053i bk10: 0a 11053i bk11: 0a 11053i bk12: 0a 11053i bk13: 0a 11055i bk14: 0a 11056i bk15: 0a 11057i 
dram_util_bins: 0 0 0 0 0 0 0 0 0 0
dram_eff_bins: 0 0 0 0 0 0 0 0 0 0
mrqq: max=2 avg=0.0144718
Memory Partition 3: 
Cache L2_bank_006:
MSHR contents

Cache L2_bank_007:
MSHR contents

In Dram Latency Queue (total = 0): 
DRAM[3]: 16 bks, busW=4 BL=8 CL=12, tRRD=2 tCCD=6, tRCD=12 tRAS=28 tRP=12 tRC=40
n_cmd=11056 n_nop=10949 n_act=7 n_pre=0 n_req=52 n_rd=96 n_write=4 bw_util=0.01809
n_activity=533 dram_eff=0.3752
bk0: 0a 11058i bk1: 0a 11059i bk2: 28a 10968i bk3: 32a 10889i bk4: 16a 10986i bk5: 12a 11005i bk6: 0a 11056i bk7: 4a 11036i bk8: 0a 11055i bk9: 2a 11032i bk10: 0a 11054i bk11: 2a 11032i bk12: 0a 11053i bk13: 0a 11054i bk14: 0a 11054i bk15: 0a 11055i 
dram_util_bins: 0 0 0 0 0 0 0 0 0 0
dram_eff_bins: 0 0 0 0 0 0 0 0 0 0
mrqq: max=2 avg=0.0170948
Memory Partition 4: 
Cache L2_bank_008:
MSHR contents

Cache L2_bank_009:
MSHR contents

In Dram Latency Queue (total = 0): 
DRAM[4]: 16 bks, busW=4 BL=8 CL=12, tRRD=2 tCCD=6, tRCD=12 tRAS=28 tRP=12 tRC=40
n_cmd=11056 n_nop=10951 n_act=6 n_pre=0 n_req=51 n_rd=96 n_write=3 bw_util=0.01791
n_activity=522 dram_eff=0.3793
bk0: 0a 11058i bk1: 0a 11059i bk2: 28a 10981i bk3: 32a 10923i bk4: 18a 10982i bk5: 14a 11003i bk6: 0a 11055i bk7: 2a 11040i bk8: 2a 11032i bk9: 0a 11053i bk10: 0a 11054i bk11: 0a 11055i bk12: 0a 11055i bk13: 0a 11055i bk14: 0a 11055i bk15: 0a 11055i 
dram_util_bins: 0 0 0 0 0 0 0 0 0 0
dram_eff_bins: 0 0 0 0 0 0 0 0 0 0
mrqq: max=3 avg=0.0136577
Memory Partition 5: 
Cache L2_bank_010:
MSHR contents

Cache L2_bank_011:
MSHR contents

In Dram Latency Queue (total = 0): 
DRAM[5]: 16 bks, busW=4 BL=8 CL=12, tRRD=2 tCCD=6, tRCD=12 tRAS=28 tRP=12 tRC=40
n_cmd=11056 n_nop=10943 n_act=7 n_pre=0 n_req=56 n_rd=100 n_write=6 bw_util=0.01918
n_activity=622 dram_eff=0.3408
bk0: 0a 11057i bk1: 0a 11060i bk2: 28a 10978i bk3: 32a 10911i bk4: 16a 10985i bk5: 16a 10993i bk6: 0a 11054i bk7: 2a 11038i bk8: 0a 11053i bk9: 0a 11054i bk10: 2a 11033i bk11: 4a 11018i bk12: 0a 11054i bk13: 0a 11055i bk14: 0a 11056i bk15: 0a 11056i 
dram_util_bins: 0 0 0 0 0 0 0 0 0 0
dram_eff_bins: 0 0 0 0 0 0 0 0 0 0
mrqq: max=2 avg=0.00832127

========= L2 cache stats =========
L2_cache_bank[0]: Access = 58, Miss = 30, Miss_rate = 0.517, Pending_hits = 6, Reservation_fails = 227
L2_cache_bank[1]: Access = 25, Miss = 25, Miss_rate = 1.000, Pending_hits = 0, Reservation_fails = 0
L2_cache_bank[2]: Access = 44, Miss = 30, Miss_rate = 0.682, Pending_hits = 3, Reservation_fails = 114
L2_cache_bank[3]: Access = 22, Miss = 22, Miss_rate = 1.000, Pending_hits = 0, Reservation_fails = 0
L2_cache_bank[4]: Access = 22, Miss = 22, Miss_rate = 1.000, Pending_hits = 0, Reservation_fails = 0
L2_cache_bank[5]: Access = 26, Miss = 26, Miss_rate = 1.000, Pending_hits = 0, Reservation_fails = 0
L2_cache_bank[6]: Access = 22, Miss = 22, Miss_rate = 1.000, Pending_hits = 0, Reservation_fails = 0
L2_cache_bank[7]: Access = 27, Miss = 26, Miss_rate = 0.963, Pending_hits = 0, Reservation_fails = 0
L2_cache_bank[8]: Access = 25, Miss = 24, Miss_rate = 0.960, Pending_hits = 0, Reservation_fails = 0
L2_cache_bank[9]: Access = 24, Miss = 24, Miss_rate = 1.000, Pending_hits = 0, Reservation_fails = 0
L2_cache_bank[10]: Access = 23, Miss = 23, Miss_rate = 1.000, Pending_hits = 0, Reservation_fails = 0
L2_cache_bank[11]: Access = 27, Miss = 27, Miss_rate = 1.000, Pending_hits = 0, Reservation_fails = 0
L2_total_cache_accesses = 345
L2_total_cache_misses = 301
L2_total_cache_miss_rate = 0.8725
L2_total_cache_pending_hits = 9
L2_total_cache_reservation_fails = 341
L2_total_cache_breakdown:
	L2_cache_stats_breakdown[GLOBAL_ACC_R][MISS] = 267
	L2_cache_stats_breakdown[CONST_ACC_R][HIT] = 11
	L2_cache_stats_breakdown[CONST_ACC_R][HIT_RESERVED] = 3
	L2_cache_stats_breakdown[CONST_ACC_R][MISS] = 1
	L2_cache_stats_breakdown[CONST_ACC_R][RESERVATION_FAIL] = 111
	L2_cache_stats_breakdown[GLOBAL_ACC_W][HIT] = 2
	L2_cache_stats_breakdown[GLOBAL_ACC_W][MISS] = 29
	L2_cache_stats_breakdown[INST_ACC_R][HIT] = 22
	L2_cache_stats_breakdown[INST_ACC_R][HIT_RESERVED] = 6
	L2_cache_stats_breakdown[INST_ACC_R][MISS] = 4
	L2_cache_stats_breakdown[INST_ACC_R][RESERVATION_FAIL] = 230
L2_cache_data_port_util = 0.001
L2_cache_fill_port_util = 0.012

icnt_total_pkts_mem_to_simt=1571
icnt_total_pkts_simt_to_mem=376
LD_mem_lat_dist  0 0 0 0 0 0 0 0 0 0 0 0 0 0 0 0 0 0 0 0 0 0 0 0 0 0 0
ST_mem_lat_dist  0 0 0 0 0 0 0 0 0 0 0 0 0 0 0 0 0 0 0 0 0 0 0 0 0 0 0
----------------------------Interconnect-DETAILS--------------------------------
Class 0:
Packet latency average = 9.74928
	minimum = 6
	maximum = 34
Network latency average = 9.22899
	minimum = 6
	maximum = 34
Slowest packet = 14
Flit latency average = 7.80072
	minimum = 6
	maximum = 34
Slowest flit = 14
Fragmentation average = 0
	minimum = 0
	maximum = 0
Injected packet rate average = 0.00305105
	minimum = 0.00179083 (at node 7)
	maximum = 0.00823782 (at node 1)
Accepted packet rate average = 0.00305105
	minimum = 0.00179083 (at node 7)
	maximum = 0.00823782 (at node 1)
Injected flit rate average = 0.00860925
	minimum = 0.00179083 (at node 7)
	maximum = 0.030086 (at node 15)
Accepted flit rate average= 0.00860925
	minimum = 0.00274594 (at node 18)
	maximum = 0.0261461 (at node 1)
Injected packet length average = 2.82174
Accepted packet length average = 2.82174
Total in-flight flits = 0 (0 measured)
====== Overall Traffic Statistics ======
====== Traffic class 0 ======
Packet latency average = 9.74928 (1 samples)
	minimum = 6 (1 samples)
	maximum = 34 (1 samples)
Network latency average = 9.22899 (1 samples)
	minimum = 6 (1 samples)
	maximum = 34 (1 samples)
Flit latency average = 7.80072 (1 samples)
	minimum = 6 (1 samples)
	maximum = 34 (1 samples)
Fragmentation average = 0 (1 samples)
	minimum = 0 (1 samples)
	maximum = 0 (1 samples)
Injected packet rate average = 0.00305105 (1 samples)
	minimum = 0.00179083 (1 samples)
	maximum = 0.00823782 (1 samples)
Accepted packet rate average = 0.00305105 (1 samples)
	minimum = 0.00179083 (1 samples)
	maximum = 0.00823782 (1 samples)
Injected flit rate average = 0.00860925 (1 samples)
	minimum = 0.00179083 (1 samples)
	maximum = 0.030086 (1 samples)
Accepted flit rate average = 0.00860925 (1 samples)
	minimum = 0.00274594 (1 samples)
	maximum = 0.0261461 (1 samples)
Injected packet size average = 2.82174 (1 samples)
Accepted packet size average = 2.82174 (1 samples)
Hops average = 1 (1 samples)
----------------------------END-of-Interconnect-DETAILS-------------------------


gpgpu_simulation_time = 0 days, 0 hrs, 0 min, 6 sec (6 sec)
gpgpu_simulation_rate = 75072 (inst/sec)
gpgpu_simulation_rate = 1396 (cycle/sec)

GPGPU-Sim PTX: cudaLaunch for 0x0x4017d8 (mode=performance simulation) on stream 0
GPGPU-Sim PTX: pushing kernel '_Z7Kernel2PbS_S_S_i' to stream 0, gridDim= (63,1,1) blockDim = (512,1,1) 
kernel '_Z7Kernel2PbS_S_S_i' transfer to GPU hardware scheduler
GPGPU-Sim uArch: Shader 12 bind to kernel 2 '_Z7Kernel2PbS_S_S_i'
GPGPU-Sim uArch: CTA/core = 3, limited by: threads
GPGPU-Sim uArch: core: 12, cta: 0 initialized @(1,8376)
GPGPU-Sim uArch: Shader 13 bind to kernel 2 '_Z7Kernel2PbS_S_S_i'
GPGPU-Sim uArch: core: 13, cta: 0 initialized @(1,8376)
GPGPU-Sim uArch: Shader 14 bind to kernel 2 '_Z7Kernel2PbS_S_S_i'
GPGPU-Sim uArch: core: 14, cta: 0 initialized @(1,8376)
GPGPU-Sim uArch: Shader 0 bind to kernel 2 '_Z7Kernel2PbS_S_S_i'
GPGPU-Sim uArch: core:  0, cta: 0 initialized @(1,8376)
GPGPU-Sim uArch: Shader 1 bind to kernel 2 '_Z7Kernel2PbS_S_S_i'
GPGPU-Sim uArch: core:  1, cta: 0 initialized @(1,8376)
GPGPU-Sim uArch: Shader 2 bind to kernel 2 '_Z7Kernel2PbS_S_S_i'
GPGPU-Sim uArch: core:  2, cta: 0 initialized @(1,8376)
GPGPU-Sim uArch: Shader 3 bind to kernel 2 '_Z7Kernel2PbS_S_S_i'
GPGPU-Sim uArch: core:  3, cta: 0 initialized @(1,8376)
GPGPU-Sim uArch: Shader 4 bind to kernel 2 '_Z7Kernel2PbS_S_S_i'
GPGPU-Sim uArch: core:  4, cta: 0 initialized @(1,8376)
GPGPU-Sim uArch: Shader 5 bind to kernel 2 '_Z7Kernel2PbS_S_S_i'
GPGPU-Sim uArch: core:  5, cta: 0 initialized @(1,8376)
GPGPU-Sim uArch: Shader 6 bind to kernel 2 '_Z7Kernel2PbS_S_S_i'
GPGPU-Sim uArch: core:  6, cta: 0 initialized @(1,8376)
GPGPU-Sim uArch: Shader 7 bind to kernel 2 '_Z7Kernel2PbS_S_S_i'
GPGPU-Sim uArch: core:  7, cta: 0 initialized @(1,8376)
GPGPU-Sim uArch: Shader 8 bind to kernel 2 '_Z7Kernel2PbS_S_S_i'
GPGPU-Sim uArch: core:  8, cta: 0 initialized @(1,8376)
GPGPU-Sim uArch: Shader 9 bind to kernel 2 '_Z7Kernel2PbS_S_S_i'
GPGPU-Sim uArch: core:  9, cta: 0 initialized @(1,8376)
GPGPU-Sim uArch: Shader 10 bind to kernel 2 '_Z7Kernel2PbS_S_S_i'
GPGPU-Sim uArch: core: 10, cta: 0 initialized @(1,8376)
GPGPU-Sim uArch: Shader 11 bind to kernel 2 '_Z7Kernel2PbS_S_S_i'
GPGPU-Sim uArch: core: 11, cta: 0 initialized @(1,8376)
GPGPU-Sim uArch: core: 12, cta: 1 initialized @(2,8376)
GPGPU-Sim uArch: core: 13, cta: 1 initialized @(2,8376)
GPGPU-Sim uArch: core: 14, cta: 1 initialized @(2,8376)
GPGPU-Sim uArch: core:  0, cta: 1 initialized @(2,8376)
GPGPU-Sim uArch: core:  1, cta: 1 initialized @(2,8376)
GPGPU-Sim uArch: core:  2, cta: 1 initialized @(2,8376)
GPGPU-Sim uArch: core:  3, cta: 1 initialized @(2,8376)
GPGPU-Sim uArch: core:  4, cta: 1 initialized @(2,8376)
GPGPU-Sim uArch: core:  5, cta: 1 initialized @(2,8376)
GPGPU-Sim uArch: core:  6, cta: 1 initialized @(2,8376)
GPGPU-Sim uArch: core:  7, cta: 1 initialized @(2,8376)
GPGPU-Sim uArch: core:  8, cta: 1 initialized @(2,8376)
GPGPU-Sim uArch: core:  9, cta: 1 initialized @(2,8376)
GPGPU-Sim uArch: core: 10, cta: 1 initialized @(2,8376)
GPGPU-Sim uArch: core: 11, cta: 1 initialized @(2,8376)
GPGPU-Sim uArch: core: 12, cta: 2 initialized @(3,8376)
GPGPU-Sim uArch: core: 13, cta: 2 initialized @(3,8376)
GPGPU-Sim uArch: core: 14, cta: 2 initialized @(3,8376)
GPGPU-Sim uArch: core:  0, cta: 2 initialized @(3,8376)
GPGPU-Sim uArch: core:  1, cta: 2 initialized @(3,8376)
GPGPU-Sim uArch: core:  2, cta: 2 initialized @(3,8376)
GPGPU-Sim uArch: core:  3, cta: 2 initialized @(3,8376)
GPGPU-Sim uArch: core:  4, cta: 2 initialized @(3,8376)
GPGPU-Sim uArch: core:  5, cta: 2 initialized @(3,8376)
GPGPU-Sim uArch: core:  6, cta: 2 initialized @(3,8376)
GPGPU-Sim uArch: core:  7, cta: 2 initialized @(3,8376)
GPGPU-Sim uArch: core:  8, cta: 2 initialized @(3,8376)
GPGPU-Sim uArch: core:  9, cta: 2 initialized @(3,8376)
GPGPU-Sim uArch: core: 10, cta: 2 initialized @(3,8376)
GPGPU-Sim uArch: core: 11, cta: 2 initialized @(3,8376)
GPGPU-Sim PTX: 500000 instructions simulated : ctaid=(22,0,0) tid=(9,0,0)
GPGPU-Sim PTX: 600000 instructions simulated : ctaid=(9,0,0) tid=(457,0,0)
GPGPU-Sim PTX: 700000 instructions simulated : ctaid=(4,0,0) tid=(457,0,0)
GPGPU-Sim uArch: cycles simulated: 8876  inst.: 638628 (ipc=376.4) sim_rate=91232 (inst/sec) elapsed = 0:0:00:07 / Tue Apr 16 16:51:54 2019
GPGPU-Sim PTX: 800000 instructions simulated : ctaid=(32,0,0) tid=(463,0,0)
GPGPU-Sim uArch: Shader 9 finished CTA #2 (954,8376), 2 CTAs running
GPGPU-Sim uArch: core:  9, cta: 2 initialized @(955,8376)
GPGPU-Sim uArch: Shader 5 finished CTA #2 (960,8376), 2 CTAs running
GPGPU-Sim uArch: core:  5, cta: 2 initialized @(961,8376)
GPGPU-Sim uArch: Shader 1 finished CTA #2 (967,8376), 2 CTAs running
GPGPU-Sim uArch: core:  1, cta: 2 initialized @(968,8376)
GPGPU-Sim uArch: Shader 9 finished CTA #1 (972,8376), 2 CTAs running
GPGPU-Sim uArch: core:  9, cta: 1 initialized @(973,8376)
GPGPU-Sim uArch: Shader 8 finished CTA #1 (976,8376), 2 CTAs running
GPGPU-Sim uArch: core:  8, cta: 1 initialized @(977,8376)
GPGPU-Sim uArch: Shader 5 finished CTA #1 (977,8376), 2 CTAs running
GPGPU-Sim uArch: core:  5, cta: 1 initialized @(978,8376)
GPGPU-Sim uArch: Shader 7 finished CTA #2 (979,8376), 2 CTAs running
GPGPU-Sim uArch: core:  7, cta: 2 initialized @(980,8376)
GPGPU-Sim uArch: Shader 1 finished CTA #1 (984,8376), 2 CTAs running
GPGPU-Sim uArch: core:  1, cta: 1 initialized @(985,8376)
GPGPU-Sim uArch: Shader 13 finished CTA #1 (985,8376), 2 CTAs running
GPGPU-Sim uArch: core: 13, cta: 1 initialized @(986,8376)
GPGPU-Sim uArch: Shader 11 finished CTA #0 (991,8376), 2 CTAs running
GPGPU-Sim uArch: core: 11, cta: 0 initialized @(992,8376)
GPGPU-Sim uArch: Shader 8 finished CTA #2 (993,8376), 2 CTAs running
GPGPU-Sim uArch: core:  8, cta: 2 initialized @(994,8376)
GPGPU-Sim uArch: Shader 7 finished CTA #0 (996,8376), 2 CTAs running
GPGPU-Sim uArch: core:  7, cta: 0 initialized @(997,8376)
GPGPU-Sim uArch: Shader 0 finished CTA #2 (997,8376), 2 CTAs running
GPGPU-Sim uArch: core:  0, cta: 2 initialized @(998,8376)
GPGPU-Sim uArch: cycles simulated: 9376  inst.: 771727 (ipc=321.3) sim_rate=96465 (inst/sec) elapsed = 0:0:00:08 / Tue Apr 16 16:51:55 2019
GPGPU-Sim uArch: Shader 2 finished CTA #0 (1002,8376), 2 CTAs running
GPGPU-Sim uArch: Shader 2 finished CTA #1 (1002,8376), 1 CTAs running
GPGPU-Sim uArch: Shader 13 finished CTA #2 (1002,8376), 2 CTAs running
GPGPU-Sim uArch: core:  2, cta: 0 initialized @(1003,8376)
GPGPU-Sim uArch: core: 13, cta: 2 initialized @(1003,8376)
GPGPU-Sim uArch: core:  2, cta: 1 initialized @(1004,8376)
GPGPU-Sim uArch: Shader 3 finished CTA #0 (1008,8376), 2 CTAs running
GPGPU-Sim uArch: Shader 11 finished CTA #1 (1008,8376), 2 CTAs running
GPGPU-Sim uArch: core:  3, cta: 0 initialized @(1009,8376)
GPGPU-Sim uArch: core: 11, cta: 1 initialized @(1009,8376)
GPGPU-Sim uArch: Shader 0 finished CTA #0 (1014,8376), 2 CTAs running
GPGPU-Sim uArch: Shader 4 finished CTA #0 (1014,8376), 2 CTAs running
GPGPU-Sim uArch: Shader 4 finished CTA #1 (1017,8376), 1 CTAs running
GPGPU-Sim uArch: Shader 6 finished CTA #2 (1020,8376), 2 CTAs running
GPGPU-Sim uArch: Shader 6 finished CTA #0 (1020,8376), 1 CTAs running
GPGPU-Sim uArch: Shader 4 finished CTA #2 (1021,8376), 0 CTAs running
GPGPU-Sim uArch: Shader 4 empty (release kernel 2 '_Z7Kernel2PbS_S_S_i').
GPGPU-Sim uArch: Shader 3 finished CTA #1 (1025,8376), 2 CTAs running
GPGPU-Sim uArch: Shader 3 finished CTA #2 (1025,8376), 1 CTAs running
GPGPU-Sim uArch: Shader 10 finished CTA #0 (1026,8376), 2 CTAs running
GPGPU-Sim uArch: Shader 10 finished CTA #1 (1026,8376), 1 CTAs running
GPGPU-Sim uArch: Shader 6 finished CTA #1 (1027,8376), 0 CTAs running
GPGPU-Sim uArch: Shader 6 empty (release kernel 2 '_Z7Kernel2PbS_S_S_i').
GPGPU-Sim uArch: Shader 12 finished CTA #1 (1028,8376), 2 CTAs running
GPGPU-Sim uArch: Shader 10 finished CTA #2 (1033,8376), 0 CTAs running
GPGPU-Sim uArch: Shader 10 empty (release kernel 2 '_Z7Kernel2PbS_S_S_i').
GPGPU-Sim uArch: Shader 2 finished CTA #2 (1035,8376), 2 CTAs running
GPGPU-Sim uArch: Shader 12 finished CTA #0 (1035,8376), 1 CTAs running
GPGPU-Sim uArch: Shader 12 finished CTA #2 (1039,8376), 0 CTAs running
GPGPU-Sim uArch: Shader 12 empty (release kernel 2 '_Z7Kernel2PbS_S_S_i').
GPGPU-Sim uArch: Shader 14 finished CTA #0 (1045,8376), 2 CTAs running
GPGPU-Sim uArch: Shader 14 finished CTA #1 (1048,8376), 1 CTAs running
GPGPU-Sim uArch: Shader 14 finished CTA #2 (1052,8376), 0 CTAs running
GPGPU-Sim uArch: Shader 14 empty (release kernel 2 '_Z7Kernel2PbS_S_S_i').
GPGPU-Sim PTX: 900000 instructions simulated : ctaid=(50,0,0) tid=(180,0,0)
GPGPU-Sim uArch: Shader 1 finished CTA #0 (1183,8376), 2 CTAs running
GPGPU-Sim uArch: Shader 5 finished CTA #0 (1199,8376), 2 CTAs running
GPGPU-Sim uArch: Shader 7 finished CTA #1 (1201,8376), 2 CTAs running
GPGPU-Sim uArch: Shader 11 finished CTA #2 (1203,8376), 2 CTAs running
GPGPU-Sim uArch: Shader 8 finished CTA #0 (1204,8376), 2 CTAs running
GPGPU-Sim uArch: Shader 13 finished CTA #0 (1207,8376), 2 CTAs running
GPGPU-Sim uArch: Shader 0 finished CTA #1 (1208,8376), 1 CTAs running
GPGPU-Sim uArch: Shader 9 finished CTA #0 (1212,8376), 2 CTAs running
GPGPU-Sim uArch: Shader 1 finished CTA #2 (1404,8376), 1 CTAs running
GPGPU-Sim uArch: Shader 5 finished CTA #2 (1406,8376), 1 CTAs running
GPGPU-Sim uArch: Shader 0 finished CTA #2 (1408,8376), 0 CTAs running
GPGPU-Sim uArch: Shader 0 empty (release kernel 2 '_Z7Kernel2PbS_S_S_i').
GPGPU-Sim uArch: Shader 3 finished CTA #0 (1413,8376), 0 CTAs running
GPGPU-Sim uArch: Shader 3 empty (release kernel 2 '_Z7Kernel2PbS_S_S_i').
GPGPU-Sim uArch: Shader 8 finished CTA #1 (1416,8376), 1 CTAs running
GPGPU-Sim uArch: Shader 13 finished CTA #1 (1422,8376), 1 CTAs running
GPGPU-Sim uArch: Shader 11 finished CTA #0 (1429,8376), 1 CTAs running
GPGPU-Sim uArch: Shader 9 finished CTA #2 (1433,8376), 1 CTAs running
GPGPU-Sim uArch: Shader 2 finished CTA #0 (1453,8376), 1 CTAs running
GPGPU-Sim uArch: Shader 7 finished CTA #2 (1456,8376), 1 CTAs running
GPGPU-Sim uArch: Shader 11 finished CTA #1 (1460,8376), 0 CTAs running
GPGPU-Sim uArch: Shader 11 empty (release kernel 2 '_Z7Kernel2PbS_S_S_i').
GPGPU-Sim uArch: Shader 9 finished CTA #1 (1467,8376), 0 CTAs running
GPGPU-Sim uArch: Shader 9 empty (release kernel 2 '_Z7Kernel2PbS_S_S_i').
GPGPU-Sim uArch: Shader 1 finished CTA #1 (1483,8376), 0 CTAs running
GPGPU-Sim uArch: Shader 1 empty (release kernel 2 '_Z7Kernel2PbS_S_S_i').
GPGPU-Sim uArch: Shader 7 finished CTA #0 (1495,8376), 0 CTAs running
GPGPU-Sim uArch: Shader 7 empty (release kernel 2 '_Z7Kernel2PbS_S_S_i').
GPGPU-Sim uArch: cycles simulated: 9876  inst.: 900280 (ipc=299.9) sim_rate=100031 (inst/sec) elapsed = 0:0:00:09 / Tue Apr 16 16:51:56 2019
GPGPU-Sim uArch: Shader 13 finished CTA #2 (1501,8376), 0 CTAs running
GPGPU-Sim uArch: Shader 13 empty (release kernel 2 '_Z7Kernel2PbS_S_S_i').
GPGPU-Sim uArch: Shader 2 finished CTA #1 (1511,8376), 0 CTAs running
GPGPU-Sim uArch: Shader 2 empty (release kernel 2 '_Z7Kernel2PbS_S_S_i').
GPGPU-Sim uArch: Shader 5 finished CTA #1 (1537,8376), 0 CTAs running
GPGPU-Sim uArch: Shader 5 empty (release kernel 2 '_Z7Kernel2PbS_S_S_i').
GPGPU-Sim uArch: Shader 8 finished CTA #2 (1549,8376), 0 CTAs running
GPGPU-Sim uArch: Shader 8 empty (release kernel 2 '_Z7Kernel2PbS_S_S_i').
GPGPU-Sim uArch: GPU detected kernel '_Z7Kernel2PbS_S_S_i' finished on shader 8.
kernel_name = _Z7Kernel2PbS_S_S_i 
kernel_launch_uid = 2 
gpu_sim_cycle = 1550
gpu_sim_insn = 450228
gpu_ipc =     290.4697
gpu_tot_sim_cycle = 9926
gpu_tot_sim_insn = 900664
gpu_tot_ipc =      90.7379
gpu_tot_issued_cta = 0
gpu_stall_dramfull = 412
gpu_stall_icnt2sh    = 621
gpu_total_sim_rate=100073

========= Core cache stats =========
L1I_cache:
	L1I_total_cache_accesses = 20293
	L1I_total_cache_misses = 1922
	L1I_total_cache_miss_rate = 0.0947
	L1I_total_cache_pending_hits = 0
	L1I_total_cache_reservation_fails = 11368
L1D_cache:
	L1D_cache_core[0]: Access = 164, Miss = 43, Miss_rate = 0.262, Pending_hits = 120, Reservation_fails = 0
	L1D_cache_core[1]: Access = 256, Miss = 85, Miss_rate = 0.332, Pending_hits = 108, Reservation_fails = 0
	L1D_cache_core[2]: Access = 160, Miss = 40, Miss_rate = 0.250, Pending_hits = 120, Reservation_fails = 0
	L1D_cache_core[3]: Access = 160, Miss = 40, Miss_rate = 0.250, Pending_hits = 120, Reservation_fails = 0
	L1D_cache_core[4]: Access = 144, Miss = 36, Miss_rate = 0.250, Pending_hits = 108, Reservation_fails = 0
	L1D_cache_core[5]: Access = 184, Miss = 50, Miss_rate = 0.272, Pending_hits = 132, Reservation_fails = 0
	L1D_cache_core[6]: Access = 112, Miss = 28, Miss_rate = 0.250, Pending_hits = 84, Reservation_fails = 0
	L1D_cache_core[7]: Access = 136, Miss = 38, Miss_rate = 0.279, Pending_hits = 96, Reservation_fails = 0
	L1D_cache_core[8]: Access = 144, Miss = 45, Miss_rate = 0.312, Pending_hits = 96, Reservation_fails = 0
	L1D_cache_core[9]: Access = 140, Miss = 41, Miss_rate = 0.293, Pending_hits = 96, Reservation_fails = 0
	L1D_cache_core[10]: Access = 96, Miss = 24, Miss_rate = 0.250, Pending_hits = 72, Reservation_fails = 0
	L1D_cache_core[11]: Access = 148, Miss = 39, Miss_rate = 0.264, Pending_hits = 108, Reservation_fails = 0
	L1D_cache_core[12]: Access = 96, Miss = 24, Miss_rate = 0.250, Pending_hits = 72, Reservation_fails = 0
	L1D_cache_core[13]: Access = 132, Miss = 35, Miss_rate = 0.265, Pending_hits = 96, Reservation_fails = 0
	L1D_cache_core[14]: Access = 96, Miss = 24, Miss_rate = 0.250, Pending_hits = 72, Reservation_fails = 0
	L1D_total_cache_accesses = 2168
	L1D_total_cache_misses = 592
	L1D_total_cache_miss_rate = 0.2731
	L1D_total_cache_pending_hits = 1500
	L1D_total_cache_reservation_fails = 0
	L1D_cache_data_port_util = 0.001
	L1D_cache_fill_port_util = 0.010
L1C_cache:
	L1C_total_cache_accesses = 4094
	L1C_total_cache_misses = 480
	L1C_total_cache_miss_rate = 0.1172
	L1C_total_cache_pending_hits = 0
	L1C_total_cache_reservation_fails = 3411
L1T_cache:
	L1T_total_cache_accesses = 0
	L1T_total_cache_misses = 0
	L1T_total_cache_pending_hits = 0
	L1T_total_cache_reservation_fails = 0

Total_core_cache_stats:
	Total_core_cache_stats_breakdown[GLOBAL_ACC_R][HIT] = 60
	Total_core_cache_stats_breakdown[GLOBAL_ACC_R][HIT_RESERVED] = 1500
	Total_core_cache_stats_breakdown[GLOBAL_ACC_R][MISS] = 517
	Total_core_cache_stats_breakdown[CONST_ACC_R][HIT] = 3614
	Total_core_cache_stats_breakdown[CONST_ACC_R][MISS] = 480
	Total_core_cache_stats_breakdown[CONST_ACC_R][RESERVATION_FAIL] = 3411
	Total_core_cache_stats_breakdown[GLOBAL_ACC_W][HIT] = 16
	Total_core_cache_stats_breakdown[GLOBAL_ACC_W][MISS] = 75
	Total_core_cache_stats_breakdown[INST_ACC_R][HIT] = 18371
	Total_core_cache_stats_breakdown[INST_ACC_R][MISS] = 1922
	Total_core_cache_stats_breakdown[INST_ACC_R][RESERVATION_FAIL] = 11368
Shader 0 warp_id issue ditsribution:
warp_id:
0, 1, 2, 3, 4, 5, 6, 7, 8, 9, 10, 11, 12, 13, 14, 15, 16, 17, 18, 19, 20, 21, 22, 23, 24, 25, 26, 27, 28, 29, 30, 31, 32, 33, 34, 35, 36, 37, 38, 39, 40, 41, 42, 43, 44, 45, 46, 47, 
distro:
45, 45, 45, 45, 45, 45, 45, 45, 45, 45, 45, 45, 45, 45, 45, 45, 45, 45, 45, 45, 45, 45, 45, 45, 45, 58, 45, 45, 45, 45, 45, 45, 60, 60, 60, 60, 60, 60, 60, 60, 60, 60, 60, 60, 60, 60, 60, 60, 
gpgpu_n_tot_thrd_icount = 983328
gpgpu_n_tot_w_icount = 30729
gpgpu_n_stall_shd_mem = 3411
gpgpu_n_mem_read_local = 0
gpgpu_n_mem_write_local = 0
gpgpu_n_mem_read_global = 517
gpgpu_n_mem_write_global = 91
gpgpu_n_mem_texture = 0
gpgpu_n_mem_const = 15
gpgpu_n_load_insn  = 64077
gpgpu_n_store_insn = 91
gpgpu_n_shmem_insn = 0
gpgpu_n_tex_insn = 0
gpgpu_n_const_mem_insn = 0
gpgpu_n_param_mem_insn = 128590
gpgpu_n_shmem_bkconflict = 0
gpgpu_n_cache_bkconflict = 0
gpgpu_n_intrawarp_mshr_merge = 0
gpgpu_n_cmem_portconflict = 3411
gpgpu_stall_shd_mem[c_mem][bk_conf] = 3411
gpgpu_stall_shd_mem[c_mem][mshr_rc] = 0
gpgpu_stall_shd_mem[c_mem][icnt_rc] = 0
gpgpu_stall_shd_mem[c_mem][data_port_stall] = 0
gpgpu_stall_shd_mem[t_mem][mshr_rc] = 0
gpgpu_stall_shd_mem[t_mem][icnt_rc] = 0
gpgpu_stall_shd_mem[t_mem][data_port_stall] = 0
gpgpu_stall_shd_mem[s_mem][bk_conf] = 0
gpgpu_stall_shd_mem[gl_mem][bk_conf] = 0
gpgpu_stall_shd_mem[gl_mem][coal_stall] = 0
gpgpu_stall_shd_mem[gl_mem][data_port_stall] = 0
gpgpu_stall_shd_mem[g_mem_ld][mshr_rc] = 0
gpgpu_stall_shd_mem[g_mem_ld][icnt_rc] = 0
gpgpu_stall_shd_mem[g_mem_ld][wb_icnt_rc] = 0
gpgpu_stall_shd_mem[g_mem_ld][wb_rsrv_fail] = 0
gpgpu_stall_shd_mem[g_mem_st][mshr_rc] = 0
gpgpu_stall_shd_mem[g_mem_st][icnt_rc] = 0
gpgpu_stall_shd_mem[g_mem_st][wb_icnt_rc] = 0
gpgpu_stall_shd_mem[g_mem_st][wb_rsrv_fail] = 0
gpgpu_stall_shd_mem[l_mem_ld][mshr_rc] = 0
gpgpu_stall_shd_mem[l_mem_ld][icnt_rc] = 0
gpgpu_stall_shd_mem[l_mem_ld][wb_icnt_rc] = 0
gpgpu_stall_shd_mem[l_mem_ld][wb_rsrv_fail] = 0
gpgpu_stall_shd_mem[l_mem_st][mshr_rc] = 0
gpgpu_stall_shd_mem[l_mem_st][icnt_rc] = 0
gpgpu_stall_shd_mem[l_mem_ld][wb_icnt_rc] = 0
gpgpu_stall_shd_mem[l_mem_ld][wb_rsrv_fail] = 0
gpu_reg_bank_conflict_stalls = 0
Warp Occupancy Distribution:
Stall:7383	W0_Idle:32712	W0_Scoreboard:30836	W1:601	W2:0	W3:0	W4:0	W5:0	W6:0	W7:0	W8:0	W9:0	W10:0	W11:0	W12:0	W13:0	W14:0	W15:0	W16:0	W17:0	W18:0	W19:0	W20:0	W21:0	W22:0	W23:0	W24:0	W25:0	W26:0	W27:0	W28:0	W29:0	W30:0	W31:0	W32:30128
traffic_breakdown_coretomem[CONST_ACC_R] = 120 {8:15,}
traffic_breakdown_coretomem[GLOBAL_ACC_R] = 4136 {8:517,}
traffic_breakdown_coretomem[GLOBAL_ACC_W] = 3640 {40:91,}
traffic_breakdown_coretomem[INST_ACC_R] = 496 {8:62,}
traffic_breakdown_memtocore[CONST_ACC_R] = 1080 {72:15,}
traffic_breakdown_memtocore[GLOBAL_ACC_R] = 70312 {136:517,}
traffic_breakdown_memtocore[GLOBAL_ACC_W] = 728 {8:91,}
traffic_breakdown_memtocore[INST_ACC_R] = 8432 {136:62,}
maxmrqlatency = 64 
maxdqlatency = 0 
maxmflatency = 344 
averagemflatency = 259 
max_icnt2mem_latency = 36 
max_icnt2sh_latency = 9925 
mrq_lat_table:356 	33 	81 	50 	24 	28 	1 	0 	0 	0 	0 	0 	0 	0 	0 	0 	0 	0 	0 	0 	0 	0 	0 	0 	0 	0 	0 	0 	0 	0 	0 	0 	
dq_lat_table:0 	0 	0 	0 	0 	0 	0 	0 	0 	0 	0 	0 	0 	0 	0 	0 	0 	0 	0 	0 	0 	0 	0 	0 	0 	0 	0 	0 	0 	0 	0 	0 	
mf_lat_table:0 	0 	0 	0 	0 	0 	0 	107 	516 	0 	0 	0 	0 	0 	0 	0 	0 	0 	0 	0 	0 	0 	0 	0 	0 	0 	0 	0 	0 	0 	0 	0 	
icnt2mem_lat_table:0 	0 	0 	661 	19 	5 	0 	0 	0 	0 	0 	0 	0 	0 	0 	0 	0 	0 	0 	0 	0 	0 	0 	0 	
icnt2sh_lat_table:0 	0 	0 	315 	192 	25 	0 	0 	0 	0 	1 	6 	22 	62 	0 	0 	0 	0 	0 	0 	0 	0 	0 	0 	
mf_lat_pw_table:0 	0 	0 	0 	0 	0 	0 	11 	7 	0 	0 	0 	0 	0 	0 	0 	0 	0 	0 	0 	0 	0 	0 	0 	0 	0 	0 	0 	0 	0 	0 	0 	
maximum concurrent accesses to same row:
dram[0]:         1         0         0         0         0         0         0         0         0         0         0         0         0         0         0         0 
dram[1]:         0         0         0         0         0         0         0         0         0         0         0         0         0         0         0         0 
dram[2]:         0         0         0         0         0         1         0         0         0         0         0         0         0         0         0         0 
dram[3]:         0         0         0         0         0         0         0         0         0         0         0         0         0         0         0         0 
dram[4]:         0         0         0         0         0         0         0         0         0         0         0         0         0         0         0         0 
dram[5]:         0         0         0         0         0         0         0         0         0         0         0         0         0         0         0         0 
maximum service time to same row:
dram[0]:       621         0       949       951      1119      1637      2751      5441         0      7547      8344         0         0         0      1899         0 
dram[1]:      1197         0       915       938      1029      1747      3924         0         0         0      3050         0         0         0         0         0 
dram[2]:       385         0       938       954      1066      1576         0      3521      7154         0         0         0         0      1163         0         0 
dram[3]:         0         0       916       935      1668      1691         0      3118         0      6622         0      5835         0         0         0         0 
dram[4]:         0         0       943       963      1678      1701         0      2444      3856         0         0         0         0         0         0         0 
dram[5]:         0         0       925       919      1624      1750         0      7616         0         0      7950      3453         0         0         0         0 
average row accesses per activate:
dram[0]:  1.000000      -nan 14.000000 14.000000 28.000000 31.000000  4.000000  2.000000      -nan  2.000000  2.000000      -nan      -nan      -nan  1.000000      -nan 
dram[1]:  2.000000      -nan 14.000000 14.000000 29.000000 28.000000  4.000000      -nan      -nan      -nan  4.000000      -nan      -nan      -nan      -nan      -nan 
dram[2]:  2.000000      -nan 14.000000 14.000000 29.000000 15.000000      -nan  3.000000  2.000000      -nan      -nan      -nan      -nan  5.000000      -nan      -nan 
dram[3]:      -nan      -nan 14.000000 16.000000 30.000000 26.000000      -nan  2.000000      -nan  2.000000      -nan  2.000000      -nan      -nan      -nan      -nan 
dram[4]:      -nan      -nan 14.000000 16.000000 31.000000 27.000000      -nan  1.000000  2.000000      -nan      -nan      -nan      -nan      -nan      -nan      -nan 
dram[5]:      -nan      -nan 14.000000 16.000000 30.000000 28.000000      -nan  1.000000      -nan      -nan  2.000000  4.000000      -nan      -nan      -nan      -nan 
average row locality = 573/48 = 11.937500
number of total memory accesses made:
dram[0]:         0         0         0         0         0         0         0         0         0         0         0         0         0         0         0         0 
dram[1]:         0         0         0         0         0         0         0         0         0         0         0         0         0         0         0         0 
dram[2]:         0         0         0         0         0         0         0         0         0         0         0         0         0         0         0         0 
dram[3]:         0         0         0         0         0         0         0         0         0         0         0         0         0         0         0         0 
dram[4]:         0         0         0         0         0         0         0         0         0         0         0         0         0         0         0         0 
dram[5]:         0         0         0         0         0         0         0         0         0         0         0         0         0         0         0         0 
total accesses: 0
min_bank_accesses = 0!
min_chip_accesses = 0!
number of total read accesses:
[...]
traffic_breakdown_coretomem[CONST_ACC_R] = 120 {8:15,}
traffic_breakdown_coretomem[GLOBAL_ACC_R] = 4501312 {8:562664,}
traffic_breakdown_coretomem[GLOBAL_ACC_W] = 9426304 {40:235338,72:34,136:76,}
traffic_breakdown_coretomem[INST_ACC_R] = 720 {8:90,}
traffic_breakdown_memtocore[CONST_ACC_R] = 1080 {72:15,}
traffic_breakdown_memtocore[GLOBAL_ACC_R] = 76522304 {136:562664,}
traffic_breakdown_memtocore[GLOBAL_ACC_W] = 1883584 {8:235448,}
traffic_breakdown_memtocore[INST_ACC_R] = 12240 {136:90,}
maxmrqlatency = 320 
maxdqlatency = 0 
maxmflatency = 1097 
averagemflatency = 378 
max_icnt2mem_latency = 775 
max_icnt2sh_latency = 602155 
mrq_lat_table:79603 	3408 	2646 	7538 	17760 	3732 	761 	265 	6 	0 	0 	0 	0 	0 	0 	0 	0 	0 	0 	0 	0 	0 	0 	0 	0 	0 	0 	0 	0 	0 	0 	0 	
dq_lat_table:0 	0 	0 	0 	0 	0 	0 	0 	0 	0 	0 	0 	0 	0 	0 	0 	0 	0 	0 	0 	0 	0 	0 	0 	0 	0 	0 	0 	0 	0 	0 	0 	
mf_lat_table:0 	0 	0 	0 	0 	0 	0 	143286 	530435 	124392 	14 	0 	0 	0 	0 	0 	0 	0 	0 	0 	0 	0 	0 	0 	0 	0 	0 	0 	0 	0 	0 	0 	
icnt2mem_lat_table:0 	0 	0 	159246 	46718 	80964 	209700 	211827 	88941 	821 	0 	0 	0 	0 	0 	0 	0 	0 	0 	0 	0 	0 	0 	0 	
icnt2sh_lat_table:0 	0 	0 	18819 	289448 	238614 	15320 	478 	0 	0 	1 	6 	22 	465 	10344 	37140 	71628 	36021 	72808 	7013 	0 	0 	0 	0 	
mf_lat_pw_table:0 	0 	0 	0 	0 	0 	0 	202 	1017 	0 	0 	0 	0 	0 	0 	0 	0 	0 	0 	0 	0 	0 	0 	0 	0 	0 	0 	0 	0 	0 	0 	0 	
maximum concurrent accesses to same row:
dram[0]:        12        18        51        46        32        32        30        31        49        27        24        48        14        21        19        17 
dram[1]:        15        15        55        54        31        31        31        32        46        28        33        24        16        24        14        12 
dram[2]:        16        14        46        47        31        29        32        27        42        53        52        30        13        12        18        15 
dram[3]:        17        16        46        58        34        29        25        26        44        54        54        46        20        22        12         9 
dram[4]:        17        10        44        53        33        28        29        29        41        56        55        49        21        12        18        15 
dram[5]:        13        15        45        58        33        28        31        30        45        35        41        44        24        23        14        11 
maximum service time to same row:
dram[0]:     21403     18872     24752     36428     18998     17106     20360     24515     10341      7611     19499     10934      9952     13747     17359     11800 
dram[1]:     27490     21249     52037     14134     20012      9393     27034     22187     15638      8303     20914      9500     16523     14975     19251     22001 
dram[2]:     19469     16972     24662     11759     12792     10379     15478     29984     12087     13000     11147     13770      7528      9148     14661     16929 
dram[3]:     16783     26881     16597     29336     20912      9387     16071     11487     16878      8078     11341      7706      9562     22115     22998     25066 
dram[4]:     19174     21053     13881     14271     24573     20113     13132     14953     16888      8647     11954     17150     15626     15119     10751     13373 
dram[5]:     26448     24462     24253     13850     10192     13591     22708     18181     15221     13891     13554     13147     15216     20711     33035     26256 
average row accesses per activate:
dram[0]:  2.151648  2.069284  2.184713  2.139073  2.139319  1.985222  2.109149  2.006339  2.137931  2.096535  2.106280  2.120166  2.234914  2.094170  2.372881  2.208995 
dram[1]:  2.121718  2.282051  2.298056  2.148741  2.120567  1.909722  2.112561  2.069841  2.166877  2.108187  2.033860  2.057901  2.146288  2.135392  2.328000  2.033654 
dram[2]:  2.065217  2.279898  2.211087  2.095428  2.091062  1.992260  2.084746  2.037901  2.002358  2.115479  2.147208  2.076659  2.084821  2.202797  2.215223  2.249400 
dram[3]:  2.203593  2.260546  2.073563  2.308889  1.995082  2.059932  1.934985  2.104730  2.091250  2.107731  2.046932  2.118239  2.163636  2.149675  1.983173  2.250000 
dram[4]:  2.095344  2.032110  2.216387  2.257642  1.985390  2.015571  2.098310  2.088856  2.091667  2.052567  2.091558  2.182809  2.179541  2.123762  2.279302  2.286747 
dram[5]:  2.323834  2.104558  2.177083  2.287411  2.128596  2.087479  2.122977  1.993818  2.214467  2.033573  1.986207  2.001196  2.096983  2.130542  2.265790  2.257703 
average row locality = 115719/54744 = 2.113821
number of total memory accesses made:
dram[0]:         0         0         0         0         0         0         0         0         0         0         0         0         0         0         0         0 
dram[1]:         0         0         0         0         0         0         0         0         0         0         0         0         0         0         0         0 
dram[2]:         0         0         0         0         0         0         0         0         0         0         0         0         0         0         0         0 
dram[3]:         0         0         0         0         0         0         0         0         0         0         0         0         0         0         0         0 
dram[4]:         0         0         0         0         0         0         0         0         0         0         0         0         0         0         0         0 
dram[5]:         0         0         0         0         0         0         0         0         0         0         0         0         0         0         0         0 
total accesses: 0
min_bank_accesses = 0!
min_chip_accesses = 0!
number of total read accesses:
dram[0]:       979       896       922       878      1151       996      1120      1053      1404      1259      1310      1118       977       879       840       835 
dram[1]:       889       712       942       843       998       926      1108      1107      1317      1104      1374      1299       918       848       873       846 
dram[2]:       855       896       941       964      1017      1077      1129      1207      1260      1326      1263      1372       868       902       844       938 
dram[3]:       736       911       799       911       993      1013      1090      1060      1267      1282      1298      1257       896       961       825       855 
dram[4]:       945       886       961       928      1024       979      1161      1169      1348      1284      1315      1341       975       831       914       949 
dram[5]:       897       785       935       828      1028      1042      1094      1103      1316      1307      1324      1263       908       840       861       806 
total reads: 99081
bank skew: 1404/712 = 1.97
chip skew: 17010/16104 = 1.06
number of total write accesses:
dram[0]:         0         0       107        91       231       213       194       213       394       435       434       417        60        55         0         0 
dram[1]:         0         0       122        96       198       174       187       197       397       338       428       407        65        51         0         0 
dram[2]:         0         0        96        90       223       210       224       191       438       396       429       443        66        43         0         0 
dram[3]:         0         0       103       128       224       190       160       186       406       381       403       427        56        30         0         0 
dram[4]:         0         0        94       106       199       186       205       218       409       395       444       462        69        27         0         0 
dram[5]:         0         0       110       135       230       175       218       187       429       389       404       410        65        25         0         0 
total reads: 16638
min_bank_accesses = 0!
chip skew: 2849/2660 = 1.07
average mf latency per bank:
dram[0]:       1280      1393      1278      1311      4364      5053      5835      6107      1644      1691      1562      1789      1438      1571      1450      1443
dram[1]:       1293      1749      1102      1402      4749      6117      5638      6109      1630      1943      1491      1684      1427      1661      1324      1472
dram[2]:       1409      1454      1223      1311      4918      5315      5741      5861      1743      1723      1627      1561      1534      2702      1459      1330
dram[3]:       1497      1433      1305      1277      4760      5742      5674      6734      1653      1838      1613      1716      1407      1560      1342      1496
dram[4]:       1295      1448      1261      1317      5048      6015      5622      6013      1663      1807      1595      1620      1392      1695      1340      1411
dram[5]:       1374      1565      1194      1284      5029      5476      5891      5888      1678      1697      1713      1714      1521      1588      1405      1459
maximum mf latency per bank:
dram[0]:        967       961       892       906       959       978       940       971       898       995       967      1080       925       870       868       910
dram[1]:        854       905       860       913       818      1033       888       982       924      1065       886       985       849      1054       909      1097
dram[2]:        865       991      1046      1051       944       989      1000       990       993       967       977       960       899      1001      1024       976
dram[3]:        787       900       888       970       958       939       927       998       953      1031       990      1016       832       994      1003       965
dram[4]:        921       978       833       927      1015       935       997       944      1057       902      1005      1001       942       973       993       924
dram[5]:       1008       917       962       953       980       972       913       923      1030       948      1074      1014       937       927       977       900

Number of Memory Banks Accessed per Memory Operation per Warp (from 0):
0	0	0	0	0	0	0	0	0	0	0	0	0	0	0	0	0	0	0	0	0	0	0	0	0	0	0	0	0	0	0	0	0	0	0	0	0	0	0	0	0	0	0	0	0	0	0	0	0	0	0	0	0	0	0	0	0	0	0	0	0	0	0	0	0	0	0	0	0	0	0	0	0	0	0	0	0	0	0	0	0	0	0	0	0	0	0	0	0	0	0	0	0	0	0	0	
Average # of Memory Banks Accessed per Memory Operation per Warp=-nan

position of mrq chosen
0	0	0	0	0	0	0	0	0	0	0	0	0	0	0	0	

average position of mrq chosen = -nan
Memory Partition 0: 
Cache L2_bank_000:
MSHR contents

Cache L2_bank_001:
MSHR contents

In Dram Latency Queue (total = 0): 
DRAM[0]: 16 bks, busW=4 BL=8 CL=12, tRRD=2 tCCD=6, tRCD=12 tRAS=28 tRP=12 tRC=40
n_cmd=803289 n_nop=747668 n_act=9164 n_pre=9148 n_req=19461 n_rd=33234 n_write=4075 bw_util=0.09289
n_activity=323324 dram_eff=0.2308
bk0: 1958a 785906i bk1: 1792a 786960i bk2: 1844a 784311i bk3: 1756a 785375i bk4: 2302a 776421i bk5: 1992a 778050i bk6: 2240a 776649i bk7: 2106a 775499i bk8: 2808a 766857i bk9: 2518a 766743i bk10: 2620a 765589i bk11: 2236a 768874i bk12: 1954a 781843i bk13: 1758a 784022i bk14: 1680a 787229i bk15: 1670a 787194i 
dram_util_bins: 0 0 0 0 0 0 0 0 0 0
dram_eff_bins: 0 0 0 0 0 0 0 0 0 0
mrqq: max=16 avg=0.224329
Memory Partition 1: 
Cache L2_bank_002:
MSHR contents

Cache L2_bank_003:
MSHR contents

In Dram Latency Queue (total = 0): 
DRAM[1]: 16 bks, busW=4 BL=8 CL=12, tRRD=2 tCCD=6, tRCD=12 tRAS=28 tRP=12 tRC=40
n_cmd=803289 n_nop=749554 n_act=8874 n_pre=8858 n_req=18764 n_rd=32208 n_write=3795 bw_util=0.08964
n_activity=322340 dram_eff=0.2234
bk0: 1778a 787573i bk1: 1424a 791424i bk2: 1884a 785122i bk3: 1686a 786715i bk4: 1996a 780844i bk5: 1852a 780411i bk6: 2216a 778339i bk7: 2214a 777449i bk8: 2634a 769826i bk9: 2208a 774456i bk10: 2748a 765516i bk11: 2598a 766705i bk12: 1836a 783598i bk13: 1696a 785785i bk14: 1746a 787847i bk15: 1692a 787117i 
dram_util_bins: 0 0 0 0 0 0 0 0 0 0
dram_eff_bins: 0 0 0 0 0 0 0 0 0 0
mrqq: max=16 avg=0.179782
Memory Partition 2: 
Cache L2_bank_004:
MSHR contents

Cache L2_bank_005:
MSHR contents

In Dram Latency Queue (total = 0): 
DRAM[2]: 16 bks, busW=4 BL=8 CL=12, tRRD=2 tCCD=6, tRCD=12 tRAS=28 tRP=12 tRC=40
n_cmd=803289 n_nop=746768 n_act=9352 n_pre=9336 n_req=19708 n_rd=33718 n_write=4115 bw_util=0.0942
n_activity=328657 dram_eff=0.2302
bk0: 1710a 787799i bk1: 1792a 788080i bk2: 1882a 784723i bk3: 1928a 783262i bk4: 2034a 779009i bk5: 2154a 776792i bk6: 2258a 776209i bk7: 2414a 774284i bk8: 2520a 766936i bk9: 2652a 767536i bk10: 2526a 767230i bk11: 2744a 764114i bk12: 1736a 783358i bk13: 1804a 784348i bk14: 1688a 787353i bk15: 1876a 785872i 
dram_util_bins: 0 0 0 0 0 0 0 0 0 0
dram_eff_bins: 0 0 0 0 0 0 0 0 0 0
mrqq: max=16 avg=0.215712
Memory Partition 3: 
Cache L2_bank_006:
MSHR contents

Cache L2_bank_007:
MSHR contents

In Dram Latency Queue (total = 0): 
DRAM[3]: 16 bks, busW=4 BL=8 CL=12, tRRD=2 tCCD=6, tRCD=12 tRAS=28 tRP=12 tRC=40
n_cmd=803289 n_nop=749167 n_act=8966 n_pre=8950 n_req=18848 n_rd=32308 n_write=3898 bw_util=0.09014
n_activity=322895 dram_eff=0.2243
bk0: 1472a 790738i bk1: 1822a 787972i bk2: 1598a 786580i bk3: 1822a 785476i bk4: 1986a 778701i bk5: 2026a 779434i bk6: 2180a 778035i bk7: 2120a 777955i bk8: 2534a 769163i bk9: 2564a 769287i bk10: 2596a 767105i bk11: 2514a 767630i bk12: 1792a 783897i bk13: 1922a 784173i bk14: 1650a 786933i bk15: 1710a 788334i 
dram_util_bins: 0 0 0 0 0 0 0 0 0 0
dram_eff_bins: 0 0 0 0 0 0 0 0 0 0
mrqq: max=16 avg=0.183318
Memory Partition 4: 
Cache L2_bank_008:
MSHR contents

Cache L2_bank_009:
MSHR contents

In Dram Latency Queue (total = 0): 
DRAM[4]: 16 bks, busW=4 BL=8 CL=12, tRRD=2 tCCD=6, tRCD=12 tRAS=28 tRP=12 tRC=40
n_cmd=803289 n_nop=746548 n_act=9354 n_pre=9338 n_req=19824 n_rd=34020 n_write=4029 bw_util=0.09473
n_activity=330579 dram_eff=0.2302
bk0: 1890a 786383i bk1: 1772a 787105i bk2: 1922a 784407i bk3: 1856a 784630i bk4: 2048a 778709i bk5: 1958a 779690i bk6: 2322a 775905i bk7: 2338a 774942i bk8: 2696a 767475i bk9: 2568a 767969i bk10: 2630a 765223i bk11: 2682a 764866i bk12: 1950a 781892i bk13: 1662a 785752i bk14: 1828a 786248i bk15: 1898a 786154i 
dram_util_bins: 0 0 0 0 0 0 0 0 0 0
dram_eff_bins: 0 0 0 0 0 0 0 0 0 0
mrqq: max=16 avg=0.215037
Memory Partition 5: 
Cache L2_bank_010:
MSHR contents

Cache L2_bank_011:
MSHR contents

In Dram Latency Queue (total = 0): 
DRAM[5]: 16 bks, busW=4 BL=8 CL=12, tRRD=2 tCCD=6, tRCD=12 tRAS=28 tRP=12 tRC=40
n_cmd=803289 n_nop=748573 n_act=9034 n_pre=9018 n_req=19114 n_rd=32674 n_write=3990 bw_util=0.09128
n_activity=324752 dram_eff=0.2258
bk0: 1794a 788392i bk1: 1570a 789625i bk2: 1870a 784642i bk3: 1656a 786512i bk4: 2056a 778914i bk5: 2084a 779654i bk6: 2188a 777941i bk7: 2206a 776752i bk8: 2632a 769164i bk9: 2614a 768134i bk10: 2648a 765902i bk11: 2526a 766643i bk12: 1816a 783332i bk13: 1680a 786130i bk14: 1722a 787609i bk15: 1612a 789102i 
dram_util_bins: 0 0 0 0 0 0 0 0 0 0
dram_eff_bins: 0 0 0 0 0 0 0 0 0 0
mrqq: max=16 avg=0.194546

========= L2 cache stats =========
L2_cache_bank[0]: Access = 65458, Miss = 8703, Miss_rate = 0.133, Pending_hits = 67, Reservation_fails = 678
L2_cache_bank[1]: Access = 65809, Miss = 7914, Miss_rate = 0.120, Pending_hits = 60, Reservation_fails = 522
L2_cache_bank[2]: Access = 65538, Miss = 8419, Miss_rate = 0.128, Pending_hits = 81, Reservation_fails = 115
L2_cache_bank[3]: Access = 66414, Miss = 7685, Miss_rate = 0.116, Pending_hits = 52, Reservation_fails = 0
L2_cache_bank[4]: Access = 66355, Miss = 8177, Miss_rate = 0.123, Pending_hits = 62, Reservation_fails = 430
L2_cache_bank[5]: Access = 69702, Miss = 8682, Miss_rate = 0.125, Pending_hits = 63, Reservation_fails = 888
L2_cache_bank[6]: Access = 65333, Miss = 7904, Miss_rate = 0.121, Pending_hits = 59, Reservation_fails = 2
L2_cache_bank[7]: Access = 67127, Miss = 8250, Miss_rate = 0.123, Pending_hits = 76, Reservation_fails = 0
L2_cache_bank[8]: Access = 65852, Miss = 8643, Miss_rate = 0.131, Pending_hits = 58, Reservation_fails = 59
L2_cache_bank[9]: Access = 67118, Miss = 8367, Miss_rate = 0.125, Pending_hits = 60, Reservation_fails = 676
L2_cache_bank[10]: Access = 66585, Miss = 8363, Miss_rate = 0.126, Pending_hits = 67, Reservation_fails = 6
L2_cache_bank[11]: Access = 66926, Miss = 7974, Miss_rate = 0.119, Pending_hits = 81, Reservation_fails = 0
L2_total_cache_accesses = 798217
L2_total_cache_misses = 99081
L2_total_cache_miss_rate = 0.1241
L2_total_cache_pending_hits = 786
L2_total_cache_reservation_fails = 3376
L2_total_cache_breakdown:
	L2_cache_stats_breakdown[GLOBAL_ACC_R][HIT] = 472202
	L2_cache_stats_breakdown[GLOBAL_ACC_R][HIT_RESERVED] = 58
	L2_cache_stats_breakdown[GLOBAL_ACC_R][MISS] = 90404
	L2_cache_stats_breakdown[GLOBAL_ACC_R][RESERVATION_FAIL] = 2613
	L2_cache_stats_breakdown[CONST_ACC_R][HIT] = 11
	L2_cache_stats_breakdown[CONST_ACC_R][HIT_RESERVED] = 3
	L2_cache_stats_breakdown[CONST_ACC_R][MISS] = 1
	L2_cache_stats_breakdown[CONST_ACC_R][RESERVATION_FAIL] = 111
	L2_cache_stats_breakdown[GLOBAL_ACC_W][HIT] = 226065
	L2_cache_stats_breakdown[GLOBAL_ACC_W][HIT_RESERVED] = 713
	L2_cache_stats_breakdown[GLOBAL_ACC_W][MISS] = 8670
	L2_cache_stats_breakdown[GLOBAL_ACC_W][RESERVATION_FAIL] = 243
	L2_cache_stats_breakdown[INST_ACC_R][HIT] = 72
	L2_cache_stats_breakdown[INST_ACC_R][HIT_RESERVED] = 12
	L2_cache_stats_breakdown[INST_ACC_R][MISS] = 6
	L2_cache_stats_breakdown[INST_ACC_R][RESERVATION_FAIL] = 409
L2_cache_data_port_util = 0.293
L2_cache_fill_port_util = 0.054

icnt_total_pkts_mem_to_simt=3049263
icnt_total_pkts_simt_to_mem=1033927
LD_mem_lat_dist  0 0 0 0 0 0 0 0 0 0 0 0 0 0 0 0 0 0 0 0 0 0 0 0 0 0 0
ST_mem_lat_dist  0 0 0 0 0 0 0 0 0 0 0 0 0 0 0 0 0 0 0 0 0 0 0 0 0 0 0
----------------------------Interconnect-DETAILS--------------------------------
Class 0:
Packet latency average = 10.176
	minimum = 6
	maximum = 39
Network latency average = 9.638
	minimum = 6
	maximum = 31
Slowest packet = 1596196
Flit latency average = 8.05933
	minimum = 6
	maximum = 27
Slowest flit = 4082280
Fragmentation average = 0
	minimum = 0
	maximum = 0
Injected packet rate average = 0.0171786
	minimum = 0.0111317 (at node 10)
	maximum = 0.0204082 (at node 16)
Accepted packet rate average = 0.0171786
	minimum = 0.0111317 (at node 10)
	maximum = 0.0204082 (at node 16)
Injected flit rate average = 0.0515358
	minimum = 0.0111317 (at node 10)
	maximum = 0.102041 (at node 16)
Accepted flit rate average= 0.0515358
	minimum = 0.0185529 (at node 15)
	maximum = 0.0927644 (at node 0)
Injected packet length average = 3
Accepted packet length average = 3
Total in-flight flits = 0 (0 measured)
====== Overall Traffic Statistics ======
====== Traffic class 0 ======
Packet latency average = 32.1739 (12 samples)
	minimum = 6 (12 samples)
	maximum = 247.25 (12 samples)
Network latency average = 20.8236 (12 samples)
	minimum = 6 (12 samples)
	maximum = 196.75 (12 samples)
Flit latency average = 19.4188 (12 samples)
	minimum = 6 (12 samples)
	maximum = 195 (12 samples)
Fragmentation average = 0.0147302 (12 samples)
	minimum = 0 (12 samples)
	maximum = 82.25 (12 samples)
Injected packet rate average = 0.0582205 (12 samples)
	minimum = 0.0412825 (12 samples)
	maximum = 0.131954 (12 samples)
Accepted packet rate average = 0.0582205 (12 samples)
	minimum = 0.0412825 (12 samples)
	maximum = 0.131954 (12 samples)
Injected flit rate average = 0.12326 (12 samples)
	minimum = 0.062951 (12 samples)
	maximum = 0.25142 (12 samples)
Accepted flit rate average = 0.12326 (12 samples)
	minimum = 0.0707002 (12 samples)
	maximum = 0.310559 (12 samples)
Injected packet size average = 2.11712 (12 samples)
Accepted packet size average = 2.11712 (12 samples)
Hops average = 1 (12 samples)
----------------------------END-of-Interconnect-DETAILS-------------------------


gpgpu_simulation_time = 0 days, 0 hrs, 10 min, 12 sec (612 sec)
gpgpu_simulation_rate = 21848 (inst/sec)
gpgpu_simulation_rate = 994 (cycle/sec)
Kernel Executed 6 times
Result stored in result.txt
