

        *** GPGPU-Sim Simulator Version 3.2.2  [build 0] ***


GPGPU-Sim PTX: simulation mode 0 (can change with PTX_SIM_MODE_FUNC environment variable:
               1=functional simulation only, 0=detailed performance simulator)
GPGPU-Sim: Configuration options:

-network_mode                           1 # Interconnection network mode
-inter_config_file   config_fermi_islip.icnt # Interconnection network config file
-gpgpu_ptx_use_cuobjdump                    1 # Use cuobjdump to extract ptx and sass from binaries
-gpgpu_experimental_lib_support                    0 # Try to extract code from cuda libraries [Broken because of unknown cudaGetExportTable]
-gpgpu_ptx_convert_to_ptxplus                    0 # Convert SASS (native ISA) to ptxplus and run ptxplus
-gpgpu_ptx_force_max_capability                   20 # Force maximum compute capability
-gpgpu_ptx_inst_debug_to_file                    0 # Dump executed instructions' debug information to file
-gpgpu_ptx_inst_debug_file       inst_debug.txt # Executed instructions' debug output file
-gpgpu_ptx_inst_debug_thread_uid                    1 # Thread UID for executed instructions' debug output
-gpgpu_simd_model                       1 # 1 = post-dominator
-gpgpu_shader_core_pipeline              1536:32 # shader core pipeline config, i.e., {<nthread>:<warpsize>}
-gpgpu_tex_cache:l1  4:128:24,L:R:m:N:L,F:128:4,128:2 # per-shader L1 texture cache  (READ-ONLY) config  {<nsets>:<bsize>:<assoc>,<rep>:<wr>:<alloc>:<wr_alloc>,<mshr>:<N>:<merge>,<mq>:<rf>}
-gpgpu_const_cache:l1 64:64:2,L:R:f:N:L,A:2:32,4 # per-shader L1 constant memory cache  (READ-ONLY) config  {<nsets>:<bsize>:<assoc>,<rep>:<wr>:<alloc>:<wr_alloc>,<mshr>:<N>:<merge>,<mq>} 
-gpgpu_cache:il1     4:128:4,L:R:f:N:L,A:2:32,4 # shader L1 instruction cache config  {<nsets>:<bsize>:<assoc>,<rep>:<wr>:<alloc>:<wr_alloc>,<mshr>:<N>:<merge>,<mq>} 
-gpgpu_cache:dl1     32:128:4,L:L:m:N:H,A:32:8,8 # per-shader L1 data cache config  {<nsets>:<bsize>:<assoc>,<rep>:<wr>:<alloc>:<wr_alloc>,<mshr>:<N>:<merge>,<mq> | none}
-gpgpu_cache:dl1PrefL1                 none # per-shader L1 data cache config  {<nsets>:<bsize>:<assoc>,<rep>:<wr>:<alloc>:<wr_alloc>,<mshr>:<N>:<merge>,<mq> | none}
-gpgpu_cache:dl1PreShared                 none # per-shader L1 data cache config  {<nsets>:<bsize>:<assoc>,<rep>:<wr>:<alloc>:<wr_alloc>,<mshr>:<N>:<merge>,<mq> | none}
-gmem_skip_L1D                          0 # global memory access skip L1D cache (implements -Xptxas -dlcm=cg, default=no skip)
-gpgpu_perfect_mem                      0 # enable perfect memory mode (no cache miss)
-n_regfile_gating_group                    4 # group of lanes that should be read/written together)
-gpgpu_clock_gated_reg_file                    0 # enable clock gated reg file for power calculations
-gpgpu_clock_gated_lanes                    0 # enable clock gated lanes for power calculations
-gpgpu_shader_registers                32768 # Number of registers per shader core. Limits number of concurrent CTAs. (default 8192)
-gpgpu_shader_cta                       8 # Maximum number of concurrent CTAs in shader (default 8)
-gpgpu_num_cta_barriers                   16 # Maximum number of named barriers per CTA (default 16)
-gpgpu_n_clusters                      15 # number of processing clusters
-gpgpu_n_cores_per_cluster                    1 # number of simd cores per cluster
-gpgpu_n_cluster_ejection_buffer_size                    8 # number of packets in ejection buffer
-gpgpu_n_ldst_response_buffer_size                    2 # number of response packets in ld/st unit ejection buffer
-gpgpu_shmem_size                   16384 # Size of shared memory per shader core (default 16kB)
-gpgpu_shmem_size                   49152 # Size of shared memory per shader core (default 16kB)
-gpgpu_shmem_size_PrefL1                16384 # Size of shared memory per shader core (default 16kB)
-gpgpu_shmem_size_PrefShared                16384 # Size of shared memory per shader core (default 16kB)
-gpgpu_shmem_num_banks                   32 # Number of banks in the shared memory in each shader core (default 16)
-gpgpu_shmem_limited_broadcast                    0 # Limit shared memory to do one broadcast per cycle (default on)
-gpgpu_shmem_warp_parts                    1 # Number of portions a warp is divided into for shared memory bank conflict check 
-gpgpu_warpdistro_shader                   -1 # Specify which shader core to collect the warp size distribution from
-gpgpu_warp_issue_shader                    0 # Specify which shader core to collect the warp issue distribution from
-gpgpu_local_mem_map                    1 # Mapping from local memory space address to simulated GPU physical address space (default = enabled)
-gpgpu_num_reg_banks                   16 # Number of register banks (default = 8)
-gpgpu_reg_bank_use_warp_id                    0 # Use warp ID in mapping registers to banks (default = off)
-gpgpu_operand_collector_num_units_sp                    6 # number of collector units (default = 4)
-gpgpu_operand_collector_num_units_sfu                    8 # number of collector units (default = 4)
-gpgpu_operand_collector_num_units_mem                    2 # number of collector units (default = 2)
-gpgpu_operand_collector_num_units_gen                    0 # number of collector units (default = 0)
-gpgpu_operand_collector_num_in_ports_sp                    2 # number of collector unit in ports (default = 1)
-gpgpu_operand_collector_num_in_ports_sfu                    1 # number of collector unit in ports (default = 1)
-gpgpu_operand_collector_num_in_ports_mem                    1 # number of collector unit in ports (default = 1)
-gpgpu_operand_collector_num_in_ports_gen                    0 # number of collector unit in ports (default = 0)
-gpgpu_operand_collector_num_out_ports_sp                    2 # number of collector unit in ports (default = 1)
-gpgpu_operand_collector_num_out_ports_sfu                    1 # number of collector unit in ports (default = 1)
-gpgpu_operand_collector_num_out_ports_mem                    1 # number of collector unit in ports (default = 1)
-gpgpu_operand_collector_num_out_ports_gen                    0 # number of collector unit in ports (default = 0)
-gpgpu_coalesce_arch                   13 # Coalescing arch (default = 13, anything else is off for now)
-gpgpu_num_sched_per_core                    2 # Number of warp schedulers per core
-gpgpu_max_insn_issue_per_warp                    1 # Max number of instructions that can be issued per warp in one cycle by scheduler
-gpgpu_simt_core_sim_order                    1 # Select the simulation order of cores in a cluster (0=Fix, 1=Round-Robin)
-gpgpu_pipeline_widths        2,1,1,2,1,1,2 # Pipeline widths ID_OC_SP,ID_OC_SFU,ID_OC_MEM,OC_EX_SP,OC_EX_SFU,OC_EX_MEM,EX_WB
-gpgpu_num_sp_units                     2 # Number of SP units (default=1)
-gpgpu_num_sfu_units                    1 # Number of SF units (default=1)
-gpgpu_num_mem_units                    1 # Number if ldst units (default=1) WARNING: not hooked up to anything
-gpgpu_scheduler                      gto # Scheduler configuration: < lrr | gto | two_level_active > If two_level_active:<num_active_warps>:<inner_prioritization>:<outer_prioritization>For complete list of prioritization values see shader.h enum scheduler_prioritization_typeDefault: gto
-gpgpu_dram_scheduler                    1 # 0 = fifo, 1 = FR-FCFS (defaul)
-gpgpu_dram_partition_queues              8:8:8:8 # i2$:$2d:d2$:$2i
-l2_ideal                               0 # Use a ideal L2 cache that always hit
-gpgpu_cache:dl2     64:128:8,L:B:m:W:L,A:32:4,4:0,32 # unified banked L2 data cache config  {<nsets>:<bsize>:<assoc>,<rep>:<wr>:<alloc>:<wr_alloc>,<mshr>:<N>:<merge>,<mq>}
-gpgpu_cache:dl2_texture_only                    0 # L2 cache used for texture only
-gpgpu_n_mem                            6 # number of memory modules (e.g. memory controllers) in gpu
-gpgpu_n_sub_partition_per_mchannel                    2 # number of memory subpartition in each memory module
-gpgpu_n_mem_per_ctrlr                    2 # number of memory chips per memory controller
-gpgpu_memlatency_stat                   14 # track and display latency statistics 0x2 enables MC, 0x4 enables queue logs
-gpgpu_frfcfs_dram_sched_queue_size                   16 # 0 = unlimited (default); # entries per chip
-gpgpu_dram_return_queue_size                  116 # 0 = unlimited (default); # entries per chip
-gpgpu_dram_buswidth                    8 # default = 4 bytes (8 bytes per cycle at DDR)
-gpgpu_dram_burst_length                    8 # Burst length of each DRAM request (default = 4 data bus cycle)
-dram_data_command_freq_ratio                    4 # Frequency ratio between DRAM data bus and command bus (default = 2 times, i.e. DDR)
-gpgpu_dram_timing_opt nbk=16:CCD=2:RRD=6:RCD=12:RAS=28:RP=12:RC=40: CL=12:WL=4:CDLR=5:WR=12:nbkgrp=4:CCDL=3:RTPL=2 # DRAM timing parameters = {nbk:tCCD:tRRD:tRCD:tRAS:tRP:tRC:CL:WL:tCDLR:tWR:nbkgrp:tCCDL:tRTPL}
-rop_latency                          120 # ROP queue latency (default 85)
-dram_latency                         100 # DRAM latency (default 30)
-gpgpu_mem_addr_mapping dramid@8;00000000.00000000.00000000.00000000.0000RRRR.RRRRRRRR.BBBCCCCB.CCSSSSSS # mapping memory address to dram model {dramid@<start bit>;<memory address map>}
-gpgpu_mem_addr_test                    0 # run sweep test to check address mapping for aliased address
-gpgpu_mem_address_mask                    1 # 0 = old addressing mask, 1 = new addressing mask, 2 = new add. mask + flipped bank sel and chip sel bits
-gpuwattch_xml_file  gpuwattch_gtx480.xml # GPUWattch XML file
-power_simulation_enabled                    1 # Turn on power simulator (1=On, 0=Off)
-power_per_cycle_dump                    0 # Dump detailed power output each cycle
-power_trace_enabled                    0 # produce a file for the power trace (1=On, 0=Off)
-power_trace_zlevel                     6 # Compression level of the power trace output log (0=no comp, 9=highest)
-steady_power_levels_enabled                    0 # produce a file for the steady power levels (1=On, 0=Off)
-steady_state_definition                  8:4 # allowed deviation:number of samples
-gpgpu_max_cycle                        0 # terminates gpu simulation early (0 = no limit)
-gpgpu_max_insn                         0 # terminates gpu simulation early (0 = no limit)
-gpgpu_max_cta                          0 # terminates gpu simulation early (0 = no limit)
-gpgpu_runtime_stat                   500 # display runtime statistics such as dram utilization {<freq>:<flag>}
-liveness_message_freq                    1 # Minimum number of seconds between simulation liveness messages (0 = always print)
-gpgpu_flush_l1_cache                    0 # Flush L1 cache at the end of each kernel call
-gpgpu_flush_l2_cache                    0 # Flush L2 cache at the end of each kernel call
-gpgpu_deadlock_detect                    1 # Stop the simulation at deadlock (1=on (default), 0=off)
-gpgpu_ptx_instruction_classification                    0 # if enabled will classify ptx instruction types per kernel (Max 255 kernels now)
-gpgpu_ptx_sim_mode                     0 # Select between Performance (default) or Functional simulation (1)
-gpgpu_clock_domains 700.0:700.0:700.0:924.0 # Clock Domain Frequencies in MhZ {<Core Clock>:<ICNT Clock>:<L2 Clock>:<DRAM Clock>}
-gpgpu_max_concurrent_kernel                    8 # maximum kernels that can run concurrently on GPU
-gpgpu_cflog_interval                    0 # Interval between each snapshot in control flow logger
-visualizer_enabled                     0 # Turn on visualizer output (1=On, 0=Off)
-visualizer_outputfile                 NULL # Specifies the output log file for visualizer
-visualizer_zlevel                      6 # Compression level of the visualizer output log (0=no comp, 9=highest)
-trace_enabled                          0 # Turn on traces
-trace_components                    none # comma seperated list of traces to enable. Complete list found in trace_streams.tup. Default none
-trace_sampling_core                    0 # The core which is printed using CORE_DPRINTF. Default 0
-trace_sampling_memory_partition                   -1 # The memory partition which is printed using MEMPART_DPRINTF. Default -1 (i.e. all)
-enable_ptx_file_line_stats                    1 # Turn on PTX source line statistic profiling. (1 = On)
-ptx_line_stats_filename gpgpu_inst_stats.txt # Output file for PTX source line statistics.
-save_embedded_ptx                      0 # saves ptx files embedded in binary as <n>.ptx
-keep                                   0 # keep intermediate files created by GPGPU-Sim when interfacing with external programs
-gpgpu_ptx_save_converted_ptxplus                    0 # Saved converted ptxplus to a file
-ptx_opcode_latency_int         4,13,4,5,145 # Opcode latencies for integers <ADD,MAX,MUL,MAD,DIV>Default 1,1,19,25,145
-ptx_opcode_latency_fp          4,13,4,5,39 # Opcode latencies for single precision floating points <ADD,MAX,MUL,MAD,DIV>Default 1,1,1,1,30
-ptx_opcode_latency_dp         8,19,8,8,330 # Opcode latencies for double precision floating points <ADD,MAX,MUL,MAD,DIV>Default 8,8,8,8,335
-ptx_opcode_initiation_int            1,2,2,1,8 # Opcode initiation intervals for integers <ADD,MAX,MUL,MAD,DIV>Default 1,1,4,4,32
-ptx_opcode_initiation_fp            1,2,1,1,4 # Opcode initiation intervals for single precision floating points <ADD,MAX,MUL,MAD,DIV>Default 1,1,1,1,5
-ptx_opcode_initiation_dp         8,16,8,8,130 # Opcode initiation intervals for double precision floating points <ADD,MAX,MUL,MAD,DIV>Default 8,8,8,8,130
DRAM Timing Options:
nbk                                    16 # number of banks
CCD                                     2 # column to column delay
RRD                                     6 # minimal delay between activation of rows in different banks
RCD                                    12 # row to column delay
RAS                                    28 # time needed to activate row
RP                                     12 # time needed to precharge (deactivate) row
RC                                     40 # row cycle time
CDLR                                    5 # switching from write to read (changes tWTR)
WR                                     12 # last data-in to row precharge
CL                                     12 # CAS latency
WL                                      4 # Write latency
nbkgrp                                  4 # number of bank groups
CCDL                                    3 # column to column delay between accesses to different bank groups
RTPL                                    2 # read to precharge delay between accesses to different bank groups
Total number of memory sub partition = 12
addr_dec_mask[CHIP]  = 0000000000000000 	high:64 low:0
addr_dec_mask[BK]    = 000000000000e100 	high:16 low:8
addr_dec_mask[ROW]   = 000000000fff0000 	high:28 low:16
addr_dec_mask[COL]   = 0000000000001eff 	high:13 low:0
addr_dec_mask[BURST] = 000000000000003f 	high:6 low:0
sub_partition_id_mask = 0000000000000100
GPGPU-Sim uArch: clock freqs: 700000000.000000:700000000.000000:700000000.000000:924000000.000000
GPGPU-Sim uArch: clock periods: 0.00000000142857142857:0.00000000142857142857:0.00000000142857142857:0.00000000108225108225
*** Initializing Memory Statistics ***
GPGPU-Sim uArch: interconnect node map (shaderID+MemID to icntID)
GPGPU-Sim uArch: Memory nodes ID start from index: 15
GPGPU-Sim uArch:    0   1   2   3   4
GPGPU-Sim uArch:    5   6   7   8   9
GPGPU-Sim uArch:   10  11  12  13  14
GPGPU-Sim uArch:   15  16  17  18  19
GPGPU-Sim uArch:   20  21  22  23  24
GPGPU-Sim uArch:   25  26
GPGPU-Sim uArch: interconnect node reverse map (icntID to shaderID+MemID)
GPGPU-Sim uArch: Memory nodes start from ID: 15
GPGPU-Sim uArch:    0   1   2   3   4
GPGPU-Sim uArch:    5   6   7   8   9
GPGPU-Sim uArch:   10  11  12  13  14
GPGPU-Sim uArch:   15  16  17  18  19
GPGPU-Sim uArch:   20  21  22  23  24
GPGPU-Sim uArch:   25  26
2a552cef618c3eed1202856b15bdbc61  /home/scratch/adwait/applications/benchmarks/CUDA/RAY/gpgpu_ptx_sim__RAY
GPGPU-Sim uArch: performance model initialization complete.
GPGPU-Sim PTX: __cudaRegisterFatBinary, fat_cubin_handle = 1, filename=rayTracing.cu
self exe links to: /home/scratch/adwait/applications/benchmarks/CUDA/RAY/gpgpu_ptx_sim__RAY
Running md5sum using "md5sum /home/scratch/adwait/applications/benchmarks/CUDA/RAY/gpgpu_ptx_sim__RAY "
Running cuobjdump using "$CUDA_INSTALL_PATH/bin/cuobjdump -ptx -elf -sass /home/scratch/adwait/applications/benchmarks/CUDA/RAY/gpgpu_ptx_sim__RAY > _cuobjdump_complete_output_7tyqF7"
Parsing file _cuobjdump_complete_output_7tyqF7
######### cuobjdump parser ########
## Adding new section ELF
Adding arch: sm_20
Adding identifier: rayTracing.cu
## Adding new section PTX
Adding ptx filename: _cuobjdump_1.ptx
Adding arch: sm_20
Adding identifier: rayTracing.cu
Done parsing!!!
GPGPU-Sim PTX: __cudaRegisterFunction _Z6renderPjP4Nodejjff : hostFun 0x0x40d033, fat_cubin_handle = 1
GPGPU-Sim PTX: allocating stack frame region for .param "__cudaretf__Zmi6float3S_" from 0x0 to 0xc
GPGPU-Sim PTX: allocating stack frame region for .param "__cudaparmf1__Zmi6float3S_" from 0xc to 0x18
GPGPU-Sim PTX: allocating stack frame region for .param "__cudaparmf2__Zmi6float3S_" from 0x18 to 0x24
GPGPU-Sim PTX: allocating stack frame region for .param "__cudaretf__Z9normalize6float3" from 0x0 to 0xc
GPGPU-Sim PTX: allocating stack frame region for .param "__cudaparmf1__Z9normalize6float3" from 0xc to 0x18
GPGPU-Sim PTX: allocating stack frame region for .param "__cudaretf__Z18intersectionSphere5Rayon6float3f" from 0x0 to 0x4
GPGPU-Sim PTX: allocating stack frame region for .param "__cudaparmf1__Z18intersectionSphere5Rayon6float3f" from 0x4 to 0x1c
GPGPU-Sim PTX: allocating stack frame region for .param "__cudaparmf2__Z18intersectionSphere5Rayon6float3f" from 0x1c to 0x28
GPGPU-Sim PTX: allocating stack frame region for .param "__cudaparmf3__Z18intersectionSphere5Rayon6float3f" from 0x28 to 0x2c
GPGPU-Sim PTX: allocating stack frame region for .param "__cudaretf__Z16intersectionPlan5Rayon6float3S0_" from 0x0 to 0x4
GPGPU-Sim PTX: allocating stack frame region for .param "__cudaparmf1__Z16intersectionPlan5Rayon6float3S0_" from 0x4 to 0x1c
GPGPU-Sim PTX: allocating stack frame region for .param "__cudaparmf2__Z16intersectionPlan5Rayon6float3S0_" from 0x1c to 0x28
GPGPU-Sim PTX: allocating stack frame region for .param "__cudaparmf3__Z16intersectionPlan5Rayon6float3S0_" from 0x28 to 0x34
GPGPU-Sim PTX: allocating stack frame region for .param "__cudaretf__Z10getNormale6float3S_" from 0x0 to 0xc
GPGPU-Sim PTX: allocating stack frame region for .param "__cudaparmf1__Z10getNormale6float3S_" from 0xc to 0x18
GPGPU-Sim PTX: allocating stack frame region for .param "__cudaparmf2__Z10getNormale6float3S_" from 0x18 to 0x24
GPGPU-Sim PTX: allocating stack frame region for .param "__cudaretf__Z11getNormaleP6float3" from 0x0 to 0xc
GPGPU-Sim PTX: allocating stack frame region for .param "__cudaparmf1__Z11getNormaleP6float3" from 0xc to 0x18
GPGPU-Sim PTX: allocating stack frame region for .param "__cudaretf__Z14rgbaFloatToInt6float4" from 0x0 to 0x4
GPGPU-Sim PTX: allocating stack frame region for .param "__cudaparmf1__Z14rgbaFloatToInt6float4" from 0x4 to 0x14
GPGPU-Sim PTX: allocating stack frame region for .param "__cudaretf__Z12notShadowRayP4Node6float3S1_f" from 0x0 to 0x4
GPGPU-Sim PTX: allocating stack frame region for .param "__cudaparmf1__Z12notShadowRayP4Node6float3S1_f" from 0x4 to 0xc
GPGPU-Sim PTX: allocating stack frame region for .param "__cudaparmf2__Z12notShadowRayP4Node6float3S1_f" from 0xc to 0x18
GPGPU-Sim PTX: allocating stack frame region for .param "__cudaparmf3__Z12notShadowRayP4Node6float3S1_f" from 0x18 to 0x24
GPGPU-Sim PTX: allocating stack frame region for .param "__cudaparmf4__Z12notShadowRayP4Node6float3S1_f" from 0x24 to 0x28
GPGPU-Sim PTX: allocating stack frame region for .param "__cudaretf__Z15float2int_pow20f" from 0x0 to 0x4
GPGPU-Sim PTX: allocating stack frame region for .param "__cudaparmf1__Z15float2int_pow20f" from 0x4 to 0x8
GPGPU-Sim PTX: allocating stack frame region for .param "__cudaretf__Z15float2int_pow50f" from 0x0 to 0x4
GPGPU-Sim PTX: allocating stack frame region for .param "__cudaparmf1__Z15float2int_pow50f" from 0x4 to 0x8
GPGPU-Sim PTX: allocating stack frame region for .param "__cudaparmf1__ZN4dim3C1Ejjj" from 0x0 to 0x8
GPGPU-Sim PTX: allocating stack frame region for .param "__cudaparmf2__ZN4dim3C1Ejjj" from 0x8 to 0xc
GPGPU-Sim PTX: allocating stack frame region for .param "__cudaparmf3__ZN4dim3C1Ejjj" from 0xc to 0x10
GPGPU-Sim PTX: allocating stack frame region for .param "__cudaparmf4__ZN4dim3C1Ejjj" from 0x10 to 0x14
GPGPU-Sim PTX: instruction assembly for function '_Zmi6float3S_'...   done.
GPGPU-Sim PTX: finding reconvergence points for '_Zmi6float3S_'...
GPGPU-Sim PTX: Finding dominators for '_Zmi6float3S_'...
GPGPU-Sim PTX: Finding immediate dominators for '_Zmi6float3S_'...
GPGPU-Sim PTX: Finding postdominators for '_Zmi6float3S_'...
GPGPU-Sim PTX: Finding immediate postdominators for '_Zmi6float3S_'...
GPGPU-Sim PTX: pre-decoding instructions for '_Zmi6float3S_'...
GPGPU-Sim PTX: reconvergence points for _Zmi6float3S_...
GPGPU-Sim PTX: ... end of reconvergence points for _Zmi6float3S_
GPGPU-Sim PTX: ... done pre-decoding instructions for '_Zmi6float3S_'.
GPGPU-Sim PTX: instruction assembly for function '_Z9normalize6float3'...   done.
GPGPU-Sim PTX: finding reconvergence points for '_Z9normalize6float3'...
GPGPU-Sim PTX: Finding dominators for '_Z9normalize6float3'...
GPGPU-Sim PTX: Finding immediate dominators for '_Z9normalize6float3'...
GPGPU-Sim PTX: Finding postdominators for '_Z9normalize6float3'...
GPGPU-Sim PTX: Finding immediate postdominators for '_Z9normalize6float3'...
GPGPU-Sim PTX: pre-decoding instructions for '_Z9normalize6float3'...
GPGPU-Sim PTX: reconvergence points for _Z9normalize6float3...
GPGPU-Sim PTX: ... end of reconvergence points for _Z9normalize6float3
GPGPU-Sim PTX: ... done pre-decoding instructions for '_Z9normalize6float3'.
GPGPU-Sim PTX: instruction assembly for function '_Z18intersectionSphere5Rayon6float3f'...   done.
GPGPU-Sim PTX: finding reconvergence points for '_Z18intersectionSphere5Rayon6float3f'...
GPGPU-Sim PTX: Finding dominators for '_Z18intersectionSphere5Rayon6float3f'...
GPGPU-Sim PTX: Finding immediate dominators for '_Z18intersectionSphere5Rayon6float3f'...
GPGPU-Sim PTX: Finding postdominators for '_Z18intersectionSphere5Rayon6float3f'...
GPGPU-Sim PTX: Finding immediate postdominators for '_Z18intersectionSphere5Rayon6float3f'...
GPGPU-Sim PTX: pre-decoding instructions for '_Z18intersectionSphere5Rayon6float3f'...
GPGPU-Sim PTX: reconvergence points for _Z18intersectionSphere5Rayon6float3f...
GPGPU-Sim PTX:  1 (potential) branch divergence @  PC=0x250 (_1.ptx:173) @%p2 bra $Lt_2_3074;
GPGPU-Sim PTX:    immediate post dominator      @  PC=0x2c0 (_1.ptx:193) mov.f32 %f39, %f32;
GPGPU-Sim PTX:  2 (potential) branch divergence @  PC=0x260 (_1.ptx:175) bra.uni $Lt_2_2818;
GPGPU-Sim PTX:    immediate post dominator      @  PC=0x2c0 (_1.ptx:193) mov.f32 %f39, %f32;
GPGPU-Sim PTX:  3 (potential) branch divergence @  PC=0x280 (_1.ptx:180) @!%p3 bra $Lt_2_3586;
GPGPU-Sim PTX:    immediate post dominator      @  PC=0x2c0 (_1.ptx:193) mov.f32 %f39, %f32;
GPGPU-Sim PTX:  4 (potential) branch divergence @  PC=0x290 (_1.ptx:182) bra.uni $Lt_2_3330;
GPGPU-Sim PTX:    immediate post dominator      @  PC=0x2c0 (_1.ptx:193) mov.f32 %f39, %f32;
GPGPU-Sim PTX: ... end of reconvergence points for _Z18intersectionSphere5Rayon6float3f
GPGPU-Sim PTX: ... done pre-decoding instructions for '_Z18intersectionSphere5Rayon6float3f'.
GPGPU-Sim PTX: instruction assembly for function '_Z16intersectionPlan5Rayon6float3S0_'...   done.
GPGPU-Sim PTX: finding reconvergence points for '_Z16intersectionPlan5Rayon6float3S0_'...
GPGPU-Sim PTX: Finding dominators for '_Z16intersectionPlan5Rayon6float3S0_'...
GPGPU-Sim PTX: Finding immediate dominators for '_Z16intersectionPlan5Rayon6float3S0_'...
GPGPU-Sim PTX: Finding postdominators for '_Z16intersectionPlan5Rayon6float3S0_'...
GPGPU-Sim PTX: Finding immediate postdominators for '_Z16intersectionPlan5Rayon6float3S0_'...
GPGPU-Sim PTX: pre-decoding instructions for '_Z16intersectionPlan5Rayon6float3S0_'...
GPGPU-Sim PTX: reconvergence points for _Z16intersectionPlan5Rayon6float3S0_...
GPGPU-Sim PTX:  1 (potential) branch divergence @  PC=0x320 (_1.ptx:214) @!%p1 bra $Lt_3_2050;
GPGPU-Sim PTX:    immediate post dominator      @  PC=0x368 (_1.ptx:227) mov.f32 %f14, %f9;
GPGPU-Sim PTX:  2 (potential) branch divergence @  PC=0x330 (_1.ptx:216) bra.uni $Lt_3_1794;
GPGPU-Sim PTX:    immediate post dominator      @  PC=0x368 (_1.ptx:227) mov.f32 %f14, %f9;
GPGPU-Sim PTX: ... end of reconvergence points for _Z16intersectionPlan5Rayon6float3S0_
GPGPU-Sim PTX: ... done pre-decoding instructions for '_Z16intersectionPlan5Rayon6float3S0_'.
GPGPU-Sim PTX: instruction assembly for function '_Z10getNormale6float3S_'...   done.
GPGPU-Sim PTX: finding reconvergence points for '_Z10getNormale6float3S_'...
GPGPU-Sim PTX: Finding dominators for '_Z10getNormale6float3S_'...
GPGPU-Sim PTX: Finding immediate dominators for '_Z10getNormale6float3S_'...
GPGPU-Sim PTX: Finding postdominators for '_Z10getNormale6float3S_'...
GPGPU-Sim PTX: Finding immediate postdominators for '_Z10getNormale6float3S_'...
GPGPU-Sim PTX: pre-decoding instructions for '_Z10getNormale6float3S_'...
GPGPU-Sim PTX: reconvergence points for _Z10getNormale6float3S_...
GPGPU-Sim PTX: ... end of reconvergence points for _Z10getNormale6float3S_
GPGPU-Sim PTX: ... done pre-decoding instructions for '_Z10getNormale6float3S_'.
GPGPU-Sim PTX: instruction assembly for function '_Z11getNormaleP6float3'...   done.
GPGPU-Sim PTX: finding reconvergence points for '_Z11getNormaleP6float3'...
GPGPU-Sim PTX: Finding dominators for '_Z11getNormaleP6float3'...
GPGPU-Sim PTX: Finding immediate dominators for '_Z11getNormaleP6float3'...
GPGPU-Sim PTX: Finding postdominators for '_Z11getNormaleP6float3'...
GPGPU-Sim PTX: Finding immediate postdominators for '_Z11getNormaleP6float3'...
GPGPU-Sim PTX: pre-decoding instructions for '_Z11getNormaleP6float3'...
GPGPU-Sim PTX: reconvergence points for _Z11getNormaleP6float3...
GPGPU-Sim PTX: ... end of reconvergence points for _Z11getNormaleP6float3
GPGPU-Sim PTX: ... done pre-decoding instructions for '_Z11getNormaleP6float3'.
GPGPU-Sim PTX: instruction assembly for function '_Z14rgbaFloatToInt6float4'...   done.
GPGPU-Sim PTX: finding reconvergence points for '_Z14rgbaFloatToInt6float4'...
GPGPU-Sim PTX: Finding dominators for '_Z14rgbaFloatToInt6float4'...
GPGPU-Sim PTX: Finding immediate dominators for '_Z14rgbaFloatToInt6float4'...
GPGPU-Sim PTX: Finding postdominators for '_Z14rgbaFloatToInt6float4'...
GPGPU-Sim PTX: Finding immediate postdominators for '_Z14rgbaFloatToInt6float4'...
GPGPU-Sim PTX: pre-decoding instructions for '_Z14rgbaFloatToInt6float4'...
GPGPU-Sim PTX: reconvergence points for _Z14rgbaFloatToInt6float4...
GPGPU-Sim PTX: ... end of reconvergence points for _Z14rgbaFloatToInt6float4
GPGPU-Sim PTX: ... done pre-decoding instructions for '_Z14rgbaFloatToInt6float4'.
GPGPU-Sim PTX: allocating global region for "cnode" from 0x100 to 0x1a0 (global memory space)
GPGPU-Sim PTX: instruction assembly for function '_Z12notShadowRayP4Node6float3S1_f'...   done.
GPGPU-Sim PTX: finding reconvergence points for '_Z12notShadowRayP4Node6float3S1_f'...
GPGPU-Sim PTX: Finding dominators for '_Z12notShadowRayP4Node6float3S1_f'...
GPGPU-Sim PTX: Finding immediate dominators for '_Z12notShadowRayP4Node6float3S1_f'...
GPGPU-Sim PTX: Finding postdominators for '_Z12notShadowRayP4Node6float3S1_f'...
GPGPU-Sim PTX: Finding immediate postdominators for '_Z12notShadowRayP4Node6float3S1_f'...
GPGPU-Sim PTX: pre-decoding instructions for '_Z12notShadowRayP4Node6float3S1_f'...
GPGPU-Sim PTX: reconvergence points for _Z12notShadowRayP4Node6float3S1_f...
GPGPU-Sim PTX:  1 (potential) branch divergence @  PC=0x638 (_1.ptx:364) @%p1 bra $Lt_7_8450;
GPGPU-Sim PTX:    immediate post dominator      @  PC=0x828 (_1.ptx:441) mov.f32 %f58, 0f00000000;    // 0
GPGPU-Sim PTX:  2 (potential) branch divergence @  PC=0x658 (_1.ptx:369) @!%p2 bra $Lt_7_8962;
GPGPU-Sim PTX:    immediate post dominator      @  PC=0x6b8 (_1.ptx:385) mov.f32 %f28, %f20;
GPGPU-Sim PTX:  3 (potential) branch divergence @  PC=0x668 (_1.ptx:371) bra.uni $Lt_7_8706;
GPGPU-Sim PTX:    immediate post dominator      @  PC=0x6b8 (_1.ptx:385) mov.f32 %f28, %f20;
GPGPU-Sim PTX:  4 (potential) branch divergence @  PC=0x6c0 (_1.ptx:386) bra.uni $Lt_7_8194;
GPGPU-Sim PTX:    immediate post dominator      @  PC=0x828 (_1.ptx:441) mov.f32 %f58, 0f00000000;    // 0
GPGPU-Sim PTX:  5 (potential) branch divergence @  PC=0x7b0 (_1.ptx:418) @%p5 bra $Lt_7_9474;
GPGPU-Sim PTX:    immediate post dominator      @  PC=0x820 (_1.ptx:438) mov.f32 %f28, %f51;
GPGPU-Sim PTX:  6 (potential) branch divergence @  PC=0x7c0 (_1.ptx:420) bra.uni $Lt_7_9730;
GPGPU-Sim PTX:    immediate post dominator      @  PC=0x820 (_1.ptx:438) mov.f32 %f28, %f51;
GPGPU-Sim PTX:  7 (potential) branch divergence @  PC=0x7e0 (_1.ptx:425) @!%p6 bra $Lt_7_9986;
GPGPU-Sim PTX:    immediate post dominator      @  PC=0x820 (_1.ptx:438) mov.f32 %f28, %f51;
GPGPU-Sim PTX:  8 (potential) branch divergence @  PC=0x7f0 (_1.ptx:427) bra.uni $Lt_7_9730;
GPGPU-Sim PTX:    immediate post dominator      @  PC=0x820 (_1.ptx:438) mov.f32 %f28, %f51;
GPGPU-Sim PTX:  9 (potential) branch divergence @  PC=0x838 (_1.ptx:443) @!%p7 bra $Lt_7_10242;
GPGPU-Sim PTX:    immediate post dominator      @  PC=0x8e8 (_1.ptx:468) add.s32 %r1, %r1, 1;
GPGPU-Sim PTX: 10 (potential) branch divergence @  PC=0x8d8 (_1.ptx:463) @!%p8 bra $Lt_7_10242;
GPGPU-Sim PTX:    immediate post dominator      @  PC=0x8e8 (_1.ptx:468) add.s32 %r1, %r1, 1;
GPGPU-Sim PTX: 11 (potential) branch divergence @  PC=0x908 (_1.ptx:472) @%p9 bra $Lt_7_10754;
GPGPU-Sim PTX:    immediate post dominator      @  PC=0x960 (_1.ptx:486) selp.s32 %r10, 1, 0, %p11;
GPGPU-Sim PTX: 12 (potential) branch divergence @  PC=0x930 (_1.ptx:477) @%p10 bra $L_7_7170;
GPGPU-Sim PTX:    immediate post dominator      @  PC=0x960 (_1.ptx:486) selp.s32 %r10, 1, 0, %p11;
GPGPU-Sim PTX: 13 (potential) branch divergence @  PC=0x938 (_1.ptx:478) bra.uni $L_7_7938;
GPGPU-Sim PTX:    immediate post dominator      @  PC=0x960 (_1.ptx:486) selp.s32 %r10, 1, 0, %p11;
GPGPU-Sim PTX: ... end of reconvergence points for _Z12notShadowRayP4Node6float3S1_f
GPGPU-Sim PTX: ... done pre-decoding instructions for '_Z12notShadowRayP4Node6float3S1_f'.
GPGPU-Sim PTX: instruction assembly for function '_Z15float2int_pow20f'...   done.
GPGPU-Sim PTX: finding reconvergence points for '_Z15float2int_pow20f'...
GPGPU-Sim PTX: Finding dominators for '_Z15float2int_pow20f'...
GPGPU-Sim PTX: Finding immediate dominators for '_Z15float2int_pow20f'...
GPGPU-Sim PTX: Finding postdominators for '_Z15float2int_pow20f'...
GPGPU-Sim PTX: Finding immediate postdominators for '_Z15float2int_pow20f'...
GPGPU-Sim PTX: pre-decoding instructions for '_Z15float2int_pow20f'...
GPGPU-Sim PTX: reconvergence points for _Z15float2int_pow20f...
GPGPU-Sim PTX: ... end of reconvergence points for _Z15float2int_pow20f
GPGPU-Sim PTX: ... done pre-decoding instructions for '_Z15float2int_pow20f'.
GPGPU-Sim PTX: instruction assembly for function '_Z15float2int_pow50f'...   done.
GPGPU-Sim PTX: finding reconvergence points for '_Z15float2int_pow50f'...
GPGPU-Sim PTX: Finding dominators for '_Z15float2int_pow50f'...
GPGPU-Sim PTX: Finding immediate dominators for '_Z15float2int_pow50f'...
GPGPU-Sim PTX: Finding postdominators for '_Z15float2int_pow50f'...
GPGPU-Sim PTX: Finding immediate postdominators for '_Z15float2int_pow50f'...
GPGPU-Sim PTX: pre-decoding instructions for '_Z15float2int_pow50f'...
GPGPU-Sim PTX: reconvergence points for _Z15float2int_pow50f...
GPGPU-Sim PTX: ... end of reconvergence points for _Z15float2int_pow50f
GPGPU-Sim PTX: ... done pre-decoding instructions for '_Z15float2int_pow50f'.
GPGPU-Sim PTX: allocating constant region for "MView" from 0x200 to 0x230 (global memory space) 1
GPGPU-Sim PTX: allocating stack frame region for .local "__cuda___cuda_local_var_36206_9_non_const_pile_32240" from 0x0 to 0x50
GPGPU-Sim PTX: instruction assembly for function '_Z6renderPjP4Nodejjff'...   done.
GPGPU-Sim PTX: finding reconvergence points for '_Z6renderPjP4Nodejjff'...
GPGPU-Sim PTX: Finding dominators for '_Z6renderPjP4Nodejjff'...
GPGPU-Sim PTX: Finding immediate dominators for '_Z6renderPjP4Nodejjff'...
GPGPU-Sim PTX: Finding postdominators for '_Z6renderPjP4Nodejjff'...
GPGPU-Sim PTX: Finding immediate postdominators for '_Z6renderPjP4Nodejjff'...
GPGPU-Sim PTX: pre-decoding instructions for '_Z6renderPjP4Nodejjff'...
GPGPU-Sim PTX: reconvergence points for _Z6renderPjP4Nodejjff...
GPGPU-Sim PTX:  1 (potential) branch divergence @  PC=0xdb0 (_1.ptx:663) @%p1 bra $Lt_10_44034;
GPGPU-Sim PTX:    immediate post dominator      @  PC=0x2370 (_1.ptx:1495) exit;
GPGPU-Sim PTX:  2 (potential) branch divergence @  PC=0x1028 (_1.ptx:751) @%p2 bra $Lt_10_45570;
GPGPU-Sim PTX:    immediate post dominator      @  PC=0x11b8 (_1.ptx:815) mov.f32 %f108, 0f00000000;   // 0
GPGPU-Sim PTX:  3 (potential) branch divergence @  PC=0x1048 (_1.ptx:756) @!%p3 bra $Lt_10_46082;
GPGPU-Sim PTX:    immediate post dominator      @  PC=0x1090 (_1.ptx:769) mov.f32 %f87, %f82;
GPGPU-Sim PTX:  4 (potential) branch divergence @  PC=0x1058 (_1.ptx:758) bra.uni $Lt_10_45826;
GPGPU-Sim PTX:    immediate post dominator      @  PC=0x1090 (_1.ptx:769) mov.f32 %f87, %f82;
GPGPU-Sim PTX:  5 (potential) branch divergence @  PC=0x1098 (_1.ptx:770) bra.uni $Lt_10_45314;
GPGPU-Sim PTX:    immediate post dominator      @  PC=0x11b8 (_1.ptx:815) mov.f32 %f108, 0f00000000;   // 0
GPGPU-Sim PTX:  6 (potential) branch divergence @  PC=0x1140 (_1.ptx:793) @%p6 bra $Lt_10_46594;
GPGPU-Sim PTX:    immediate post dominator      @  PC=0x11b0 (_1.ptx:813) mov.f32 %f87, %f101;
GPGPU-Sim PTX:  7 (potential) branch divergence @  PC=0x1150 (_1.ptx:795) bra.uni $Lt_10_46850;
GPGPU-Sim PTX:    immediate post dominator      @  PC=0x11b0 (_1.ptx:813) mov.f32 %f87, %f101;
GPGPU-Sim PTX:  8 (potential) branch divergence @  PC=0x1170 (_1.ptx:800) @!%p7 bra $Lt_10_47106;
GPGPU-Sim PTX:    immediate post dominator      @  PC=0x11b0 (_1.ptx:813) mov.f32 %f87, %f101;
GPGPU-Sim PTX:  9 (potential) branch divergence @  PC=0x1180 (_1.ptx:802) bra.uni $Lt_10_46850;
GPGPU-Sim PTX:    immediate post dominator      @  PC=0x11b0 (_1.ptx:813) mov.f32 %f87, %f101;
GPGPU-Sim PTX: 10 (potential) branch divergence @  PC=0x11f8 (_1.ptx:823) @%p8 bra $Lt_10_47362;
GPGPU-Sim PTX:    immediate post dominator      @  PC=0x1210 (_1.ptx:829) add.s32 %r25, %r25, 1;
GPGPU-Sim PTX: 11 (potential) branch divergence @  PC=0x1230 (_1.ptx:833) @%p9 bra $Lt_10_45058;
GPGPU-Sim PTX:    immediate post dominator      @  PC=0x1238 (_1.ptx:834) mov.f32 %f109, 0f00000000;   // 0
GPGPU-Sim PTX: 12 (potential) branch divergence @  PC=0x1280 (_1.ptx:843) @%p10 bra $Lt_10_48130;
GPGPU-Sim PTX:    immediate post dominator      @  PC=0x2140 (_1.ptx:1416) add.s32 %r23, %r23, 1;
GPGPU-Sim PTX: 13 (potential) branch divergence @  PC=0x1330 (_1.ptx:868) @%p11 bra $Lt_10_48898;
GPGPU-Sim PTX:    immediate post dominator      @  PC=0x13b8 (_1.ptx:888) sub.f32 %f136, %f21, %f119;
GPGPU-Sim PTX: 14 (potential) branch divergence @  PC=0x1350 (_1.ptx:873) bra.uni $Lt_10_48642;
GPGPU-Sim PTX:    immediate post dominator      @  PC=0x13b8 (_1.ptx:888) sub.f32 %f136, %f21, %f119;
GPGPU-Sim PTX: 15 (potential) branch divergence @  PC=0x1430 (_1.ptx:903) @!%p12 bra $Lt_10_49410;
GPGPU-Sim PTX:    immediate post dominator      @  PC=0x1470 (_1.ptx:915) mov.f32 %f153, 0f3d4ccccd;   // 0.05
GPGPU-Sim PTX: 16 (potential) branch divergence @  PC=0x1450 (_1.ptx:908) bra.uni $Lt_10_49154;
GPGPU-Sim PTX:    immediate post dominator      @  PC=0x1470 (_1.ptx:915) mov.f32 %f153, 0f3d4ccccd;   // 0.05
GPGPU-Sim PTX: 17 (potential) branch divergence @  PC=0x1578 (_1.ptx:949) @!%p13 bra $Lt_10_58114;
GPGPU-Sim PTX:    immediate post dominator      @  PC=0x2080 (_1.ptx:1388) add.f32 %f399, %f126, %f126;
GPGPU-Sim PTX: 18 (potential) branch divergence @  PC=0x15c0 (_1.ptx:961) @%p14 bra $Lt_10_49922;
GPGPU-Sim PTX:    immediate post dominator      @  PC=0x17b0 (_1.ptx:1039) mov.f32 %f221, 0f00000000;   // 0
GPGPU-Sim PTX: 19 (potential) branch divergence @  PC=0x15e0 (_1.ptx:966) @!%p15 bra $Lt_10_50434;
GPGPU-Sim PTX:    immediate post dominator      @  PC=0x1638 (_1.ptx:982) mov.f32 %f190, %f183;
GPGPU-Sim PTX: 20 (potential) branch divergence @  PC=0x15f0 (_1.ptx:968) bra.uni $Lt_10_50178;
GPGPU-Sim PTX:    immediate post dominator      @  PC=0x1638 (_1.ptx:982) mov.f32 %f190, %f183;
GPGPU-Sim PTX: 21 (potential) branch divergence @  PC=0x1640 (_1.ptx:983) bra.uni $Lt_10_49666;
GPGPU-Sim PTX:    immediate post dominator      @  PC=0x17b0 (_1.ptx:1039) mov.f32 %f221, 0f00000000;   // 0
GPGPU-Sim PTX: 22 (potential) branch divergence @  PC=0x1738 (_1.ptx:1016) @%p18 bra $Lt_10_50946;
GPGPU-Sim PTX:    immediate post dominator      @  PC=0x17a8 (_1.ptx:1036) mov.f32 %f190, %f214;
GPGPU-Sim PTX: 23 (potential) branch divergence @  PC=0x1748 (_1.ptx:1018) bra.uni $Lt_10_51202;
GPGPU-Sim PTX:    immediate post dominator      @  PC=0x17a8 (_1.ptx:1036) mov.f32 %f190, %f214;
GPGPU-Sim PTX: 24 (potential) branch divergence @  PC=0x1768 (_1.ptx:1023) @!%p19 bra $Lt_10_51458;
GPGPU-Sim PTX:    immediate post dominator      @  PC=0x17a8 (_1.ptx:1036) mov.f32 %f190, %f214;
GPGPU-Sim PTX: 25 (potential) branch divergence @  PC=0x1778 (_1.ptx:1025) bra.uni $Lt_10_51202;
GPGPU-Sim PTX:    immediate post dominator      @  PC=0x17a8 (_1.ptx:1036) mov.f32 %f190, %f214;
GPGPU-Sim PTX: 26 (potential) branch divergence @  PC=0x17c0 (_1.ptx:1041) @!%p20 bra $Lt_10_58370;
GPGPU-Sim PTX:    immediate post dominator      @  PC=0x1828 (_1.ptx:1057) add.s32 %r50, %r50, 1;
GPGPU-Sim PTX: 27 (potential) branch divergence @  PC=0x1818 (_1.ptx:1052) @!%p21 bra $Lt_10_58370;
GPGPU-Sim PTX:    immediate post dominator      @  PC=0x1828 (_1.ptx:1057) add.s32 %r50, %r50, 1;
GPGPU-Sim PTX: 28 (potential) branch divergence @  PC=0x1848 (_1.ptx:1061) @%p22 bra $Lt_10_58882;
GPGPU-Sim PTX:    immediate post dominator      @  PC=0x1880 (_1.ptx:1071) @!%p23 bra $Lt_10_58114;
GPGPU-Sim PTX: 29 (potential) branch divergence @  PC=0x1860 (_1.ptx:1064) @%p23 bra $L_10_42498;
GPGPU-Sim PTX:    immediate post dominator      @  PC=0x1880 (_1.ptx:1071) @!%p23 bra $Lt_10_58114;
GPGPU-Sim PTX: 30 (potential) branch divergence @  PC=0x1868 (_1.ptx:1065) bra.uni $L_10_43266;
GPGPU-Sim PTX:    immediate post dominator      @  PC=0x1880 (_1.ptx:1071) @!%p23 bra $Lt_10_58114;
GPGPU-Sim PTX: 31 (potential) branch divergence @  PC=0x1880 (_1.ptx:1071) @!%p23 bra $Lt_10_58114;
GPGPU-Sim PTX:    immediate post dominator      @  PC=0x2080 (_1.ptx:1388) add.f32 %f399, %f126, %f126;
GPGPU-Sim PTX: 32 (potential) branch divergence @  PC=0x19c8 (_1.ptx:1115) @!%p24 bra $Lt_10_51714;
GPGPU-Sim PTX:    immediate post dominator      @  PC=0x2040 (_1.ptx:1375) mov.f32 %f394, 0f3f4ccccd;   // 0.8
GPGPU-Sim PTX: 33 (potential) branch divergence @  PC=0x19d8 (_1.ptx:1118) bra.uni $LDWendi___isnanf_192_1;
GPGPU-Sim PTX:    immediate post dominator      @  PC=0x2040 (_1.ptx:1375) mov.f32 %f394, 0f3f4ccccd;   // 0.8
GPGPU-Sim PTX: 34 (potential) branch divergence @  PC=0x19f8 (_1.ptx:1124) @!%p25 bra $Lt_10_7682;
GPGPU-Sim PTX:    immediate post dominator      @  PC=0x2040 (_1.ptx:1375) mov.f32 %f394, 0f3f4ccccd;   // 0.8
GPGPU-Sim PTX: 35 (potential) branch divergence @  PC=0x1a00 (_1.ptx:1125) bra.uni $Lt_10_7938;
GPGPU-Sim PTX:    immediate post dominator      @  PC=0x1a20 (_1.ptx:1133) mov.f32 %f272, 0f7f800000;   // ((1.0F)/(0.0F))
GPGPU-Sim PTX: 36 (potential) branch divergence @  PC=0x1a18 (_1.ptx:1130) bra.uni $LDWendi___isnanf_192_1;
GPGPU-Sim PTX:    immediate post dominator      @  PC=0x2040 (_1.ptx:1375) mov.f32 %f394, 0f3f4ccccd;   // 0.8
GPGPU-Sim PTX: 37 (potential) branch divergence @  PC=0x1a30 (_1.ptx:1135) @!%p26 bra $Lt_10_52226;
GPGPU-Sim PTX:    immediate post dominator      @  PC=0x2040 (_1.ptx:1375) mov.f32 %f394, 0f3f4ccccd;   // 0.8
GPGPU-Sim PTX: 38 (potential) branch divergence @  PC=0x1a40 (_1.ptx:1138) bra.uni $LDWendi___isnanf_192_1;
GPGPU-Sim PTX:    immediate post dominator      @  PC=0x2040 (_1.ptx:1375) mov.f32 %f394, 0f3f4ccccd;   // 0.8
GPGPU-Sim PTX: 39 (potential) branch divergence @  PC=0x1a58 (_1.ptx:1142) @!%p27 bra $Lt_10_52738;
GPGPU-Sim PTX:    immediate post dominator      @  PC=0x2040 (_1.ptx:1375) mov.f32 %f394, 0f3f4ccccd;   // 0.8
GPGPU-Sim PTX: 40 (potential) branch divergence @  PC=0x1ab8 (_1.ptx:1155) bra.uni $LDWendi___isnanf_192_1;
GPGPU-Sim PTX:    immediate post dominator      @  PC=0x2040 (_1.ptx:1375) mov.f32 %f394, 0f3f4ccccd;   // 0.8
GPGPU-Sim PTX: 41 (potential) branch divergence @  PC=0x1ad0 (_1.ptx:1159) @!%p29 bra $Lt_10_53250;
GPGPU-Sim PTX:    immediate post dominator      @  PC=0x2040 (_1.ptx:1375) mov.f32 %f394, 0f3f4ccccd;   // 0.8
GPGPU-Sim PTX: 42 (potential) branch divergence @  PC=0x1b20 (_1.ptx:1170) @!%p30 bra $Lt_10_53762;
GPGPU-Sim PTX:    immediate post dominator      @  PC=0x1b40 (_1.ptx:1177) mov.f32 %f268, %f284;
GPGPU-Sim PTX: 43 (potential) branch divergence @  PC=0x1b48 (_1.ptx:1178) bra.uni $LDWendi___isnanf_192_1;
GPGPU-Sim PTX:    immediate post dominator      @  PC=0x2040 (_1.ptx:1375) mov.f32 %f394, 0f3f4ccccd;   // 0.8
GPGPU-Sim PTX: 44 (potential) branch divergence @  PC=0x1b60 (_1.ptx:1183) @!%p31 bra $Lt_10_59394;
GPGPU-Sim PTX:    immediate post dominator      @  PC=0x2040 (_1.ptx:1375) mov.f32 %f394, 0f3f4ccccd;   // 0.8
GPGPU-Sim PTX: 45 (potential) branch divergence @  PC=0x1b88 (_1.ptx:1188) @!%p32 bra $Lt_10_59394;
GPGPU-Sim PTX:    immediate post dominator      @  PC=0x2040 (_1.ptx:1375) mov.f32 %f394, 0f3f4ccccd;   // 0.8
GPGPU-Sim PTX: 46 (potential) branch divergence @  PC=0x1ba0 (_1.ptx:1192) bra.uni $LDWendi___isnanf_192_1;
GPGPU-Sim PTX:    immediate post dominator      @  PC=0x2040 (_1.ptx:1375) mov.f32 %f394, 0f3f4ccccd;   // 0.8
GPGPU-Sim PTX: 47 (potential) branch divergence @  PC=0x1bd8 (_1.ptx:1202) @%p33 bra $Lt_10_54530;
GPGPU-Sim PTX:    immediate post dominator      @  PC=0x1c20 (_1.ptx:1216) sub.s32 %r64, %r64, 127;
GPGPU-Sim PTX: 48 (potential) branch divergence @  PC=0x1c10 (_1.ptx:1211) bra.uni $Lt_10_54274;
GPGPU-Sim PTX:    immediate post dominator      @  PC=0x1c20 (_1.ptx:1216) sub.s32 %r64, %r64, 127;
GPGPU-Sim PTX: 49 (potential) branch divergence @  PC=0x1c58 (_1.ptx:1224) @!%p34 bra $Lt_10_54786;
GPGPU-Sim PTX:    immediate post dominator      @  PC=0x1c78 (_1.ptx:1232) mov.f32 %f302, 0fbf800000;   // -1
GPGPU-Sim PTX: 50 (potential) branch divergence @  PC=0x1eb0 (_1.ptx:1312) @%p35 bra $Lt_10_55298;
GPGPU-Sim PTX:    immediate post dominator      @  PC=0x1ed8 (_1.ptx:1321) mov.f32 %f367, %f365;
GPGPU-Sim PTX: 51 (potential) branch divergence @  PC=0x1f98 (_1.ptx:1346) @!%p38 bra $Lt_10_55810;
GPGPU-Sim PTX:    immediate post dominator      @  PC=0x1fa8 (_1.ptx:1351) mov.f32 %f284, %f386;
GPGPU-Sim PTX: 52 (potential) branch divergence @  PC=0x2018 (_1.ptx:1365) @%p39 bra $Lt_10_56322;
GPGPU-Sim PTX:    immediate post dominator      @  PC=0x2038 (_1.ptx:1372) mov.f32 %f268, %f284;
GPGPU-Sim PTX: 53 (potential) branch divergence @  PC=0x2158 (_1.ptx:1419) @%p40 bra $L_10_42242;
GPGPU-Sim PTX:    immediate post dominator      @  PC=0x2170 (_1.ptx:1424) sub.s32 %r86, %r24, 1;
GPGPU-Sim PTX: 54 (potential) branch divergence @  PC=0x2168 (_1.ptx:1421) @%p41 bra $L_10_41474;
GPGPU-Sim PTX:    immediate post dominator      @  PC=0x2170 (_1.ptx:1424) sub.s32 %r86, %r24, 1;
GPGPU-Sim PTX: 55 (potential) branch divergence @  PC=0x2190 (_1.ptx:1428) @%p42 bra $Lt_10_56834;
GPGPU-Sim PTX:    immediate post dominator      @  PC=0x2288 (_1.ptx:1464) ld.global.u32 %r92, [%rd4+0];
GPGPU-Sim PTX: 56 (potential) branch divergence @  PC=0x2280 (_1.ptx:1461) @%p43 bra $Lt_10_57346;
GPGPU-Sim PTX:    immediate post dominator      @  PC=0x2288 (_1.ptx:1464) ld.global.u32 %r92, [%rd4+0];
GPGPU-Sim PTX: ... end of reconvergence points for _Z6renderPjP4Nodejjff
GPGPU-Sim PTX: ... done pre-decoding instructions for '_Z6renderPjP4Nodejjff'.
GPGPU-Sim PTX: instruction assembly for function '_ZN4dim3C1Ejjj'...   done.
GPGPU-Sim PTX: finding reconvergence points for '_ZN4dim3C1Ejjj'...
GPGPU-Sim PTX: Finding dominators for '_ZN4dim3C1Ejjj'...
GPGPU-Sim PTX: Finding immediate dominators for '_ZN4dim3C1Ejjj'...
GPGPU-Sim PTX: Finding postdominators for '_ZN4dim3C1Ejjj'...
GPGPU-Sim PTX: Finding immediate postdominators for '_ZN4dim3C1Ejjj'...
GPGPU-Sim PTX: pre-decoding instructions for '_ZN4dim3C1Ejjj'...
GPGPU-Sim PTX: reconvergence points for _ZN4dim3C1Ejjj...
GPGPU-Sim PTX: ... end of reconvergence points for _ZN4dim3C1Ejjj
GPGPU-Sim PTX: ... done pre-decoding instructions for '_ZN4dim3C1Ejjj'.
GPGPU-Sim PTX: finished parsing EMBEDDED .ptx file _1.ptx
Adding _cuobjdump_1.ptx with cubin handle 1
GPGPU-Sim PTX: extracting embedded .ptx to temporary file "_ptx_5LhNXb"
Running: cat _ptx_5LhNXb | sed 's/.version 1.5/.version 1.4/' | sed 's/, texmode_independent//' | sed 's/\(\.extern \.const\[1\] .b8 \w\+\)\[\]/\1\[1\]/' | sed 's/const\[.\]/const\[0\]/g' > _ptx2_392Egg
GPGPU-Sim PTX: generating ptxinfo using "$CUDA_INSTALL_PATH/bin/ptxas --gpu-name=sm_20 -v _ptx2_392Egg --output-file  /dev/null 2> _ptx_5LhNXbinfo"
GPGPU-Sim PTX: Kernel '_Z6renderPjP4Nodejjff' : regs=45, lmem=4, smem=0, cmem=180
GPGPU-Sim PTX: removing ptxinfo using "rm -f _ptx_5LhNXb _ptx2_392Egg _ptx_5LhNXbinfo"
GPGPU-Sim PTX: loading globals with explicit initializers... 
GPGPU-Sim PTX: finished loading globals (0 bytes total).
GPGPU-Sim PTX: loading constants with explicit initializers...  done.
GPGPU-Sim PTX: __cudaRegisterVar: hostVar = 0x632880; deviceAddress = MView; deviceName = MView
GPGPU-Sim PTX: __cudaRegisterVar: Registering const memory space of 48 bytes
GPGPU-Sim PTX registering constant MView (48 bytes) to name mapping
GPGPU-Sim PTX: __cudaRegisterVar: hostVar = 0x6328c0; deviceAddress = cnode; deviceName = cnode
GPGPU-Sim PTX: __cudaRegisterVar: Registering const memory space of 160 bytes
GPGPU-Sim PTX registering constant cnode (160 bytes) to name mapping
GPGPU-Sim PTX: cudaMemcpyToSymbol: symbol = 0x6328c0
GPGPU-Sim PTX: starting gpgpu_ptx_sim_memcpy_symbol with hostVar 0x0x6328c0
GPGPU-Sim PTX: gpgpu_ptx_sim_memcpy_symbol: Found PTX symbol w/ hostVar=0x6328c0
GPGPU-Sim PTX: gpgpu_ptx_sim_memcpy_symbol: copying const memory 160 bytes  to  symbol cnode+0 @0x100 ...
GPGPU-Sim PTX: cudaMemcpyToSymbol: symbol = 0x632880
GPGPU-Sim PTX: starting gpgpu_ptx_sim_memcpy_symbol with hostVar 0x0x632880
GPGPU-Sim PTX: gpgpu_ptx_sim_memcpy_symbol: Found PTX symbol w/ hostVar=0x632880
GPGPU-Sim PTX: gpgpu_ptx_sim_memcpy_symbol: copying const memory 48 bytes  to  symbol MView+0 @0x200 ...

GPGPU-Sim PTX: cudaLaunch for 0x0x40d033 (mode=performance simulation) on stream 0
GPGPU-Sim PTX: pushing kernel '_Z6renderPjP4Nodejjff' to stream 0, gridDim= (16,32,1) blockDim = (16,8,1) 
kernel '_Z6renderPjP4Nodejjff' transfer to GPU hardware scheduler
GPGPU-Sim uArch: Shader 1 bind to kernel 1 '_Z6renderPjP4Nodejjff'
GPGPU-Sim uArch: CTA/core = 5, limited by: regs
GPGPU-Sim uArch: core:  1, cta: 0 initialized @(1,0)
GPGPU-Sim uArch: Shader 2 bind to kernel 1 '_Z6renderPjP4Nodejjff'
GPGPU-Sim uArch: core:  2, cta: 0 initialized @(1,0)
GPGPU-Sim uArch: Shader 3 bind to kernel 1 '_Z6renderPjP4Nodejjff'
GPGPU-Sim uArch: core:  3, cta: 0 initialized @(1,0)
GPGPU-Sim uArch: Shader 4 bind to kernel 1 '_Z6renderPjP4Nodejjff'
GPGPU-Sim uArch: core:  4, cta: 0 initialized @(1,0)
GPGPU-Sim uArch: Shader 5 bind to kernel 1 '_Z6renderPjP4Nodejjff'
GPGPU-Sim uArch: core:  5, cta: 0 initialized @(1,0)
GPGPU-Sim uArch: Shader 6 bind to kernel 1 '_Z6renderPjP4Nodejjff'
GPGPU-Sim uArch: core:  6, cta: 0 initialized @(1,0)
GPGPU-Sim uArch: Shader 7 bind to kernel 1 '_Z6renderPjP4Nodejjff'
GPGPU-Sim uArch: core:  7, cta: 0 initialized @(1,0)
GPGPU-Sim uArch: Shader 8 bind to kernel 1 '_Z6renderPjP4Nodejjff'
GPGPU-Sim uArch: core:  8, cta: 0 initialized @(1,0)
GPGPU-Sim uArch: Shader 9 bind to kernel 1 '_Z6renderPjP4Nodejjff'
GPGPU-Sim uArch: core:  9, cta: 0 initialized @(1,0)
GPGPU-Sim uArch: Shader 10 bind to kernel 1 '_Z6renderPjP4Nodejjff'
GPGPU-Sim uArch: core: 10, cta: 0 initialized @(1,0)
GPGPU-Sim uArch: Shader 11 bind to kernel 1 '_Z6renderPjP4Nodejjff'
GPGPU-Sim uArch: core: 11, cta: 0 initialized @(1,0)
GPGPU-Sim uArch: Shader 12 bind to kernel 1 '_Z6renderPjP4Nodejjff'
GPGPU-Sim uArch: core: 12, cta: 0 initialized @(1,0)
GPGPU-Sim uArch: Shader 13 bind to kernel 1 '_Z6renderPjP4Nodejjff'
GPGPU-Sim uArch: core: 13, cta: 0 initialized @(1,0)
GPGPU-Sim uArch: Shader 14 bind to kernel 1 '_Z6renderPjP4Nodejjff'
GPGPU-Sim uArch: core: 14, cta: 0 initialized @(1,0)
GPGPU-Sim uArch: Shader 0 bind to kernel 1 '_Z6renderPjP4Nodejjff'
GPGPU-Sim uArch: core:  0, cta: 0 initialized @(1,0)
GPGPU-Sim uArch: core:  1, cta: 1 initialized @(2,0)
GPGPU-Sim uArch: core:  2, cta: 1 initialized @(2,0)
GPGPU-Sim uArch: core:  3, cta: 1 initialized @(2,0)
GPGPU-Sim uArch: core:  4, cta: 1 initialized @(2,0)
GPGPU-Sim uArch: core:  5, cta: 1 initialized @(2,0)
GPGPU-Sim uArch: core:  6, cta: 1 initialized @(2,0)
GPGPU-Sim uArch: core:  7, cta: 1 initialized @(2,0)
GPGPU-Sim uArch: core:  8, cta: 1 initialized @(2,0)
GPGPU-Sim uArch: core:  9, cta: 1 initialized @(2,0)
GPGPU-Sim uArch: core: 10, cta: 1 initialized @(2,0)
GPGPU-Sim uArch: core: 11, cta: 1 initialized @(2,0)
GPGPU-Sim uArch: core: 12, cta: 1 initialized @(2,0)
GPGPU-Sim uArch: core: 13, cta: 1 initialized @(2,0)
GPGPU-Sim uArch: core: 14, cta: 1 initialized @(2,0)
GPGPU-Sim uArch: core:  0, cta: 1 initialized @(2,0)
GPGPU-Sim uArch: core:  1, cta: 2 initialized @(3,0)
GPGPU-Sim uArch: core:  2, cta: 2 initialized @(3,0)
GPGPU-Sim uArch: core:  3, cta: 2 initialized @(3,0)
GPGPU-Sim uArch: core:  4, cta: 2 initialized @(3,0)
GPGPU-Sim uArch: core:  5, cta: 2 initialized @(3,0)
GPGPU-Sim uArch: core:  6, cta: 2 initialized @(3,0)
GPGPU-Sim uArch: core:  7, cta: 2 initialized @(3,0)
GPGPU-Sim uArch: core:  8, cta: 2 initialized @(3,0)
GPGPU-Sim uArch: core:  9, cta: 2 initialized @(3,0)
GPGPU-Sim uArch: core: 10, cta: 2 initialized @(3,0)
GPGPU-Sim uArch: core: 11, cta: 2 initialized @(3,0)
GPGPU-Sim uArch: core: 12, cta: 2 initialized @(3,0)
GPGPU-Sim uArch: core: 13, cta: 2 initialized @(3,0)
GPGPU-Sim uArch: core: 14, cta: 2 initialized @(3,0)
GPGPU-Sim uArch: core:  0, cta: 2 initialized @(3,0)
GPGPU-Sim uArch: core:  1, cta: 3 initialized @(4,0)
GPGPU-Sim uArch: core:  2, cta: 3 initialized @(4,0)
GPGPU-Sim uArch: core:  3, cta: 3 initialized @(4,0)
GPGPU-Sim uArch: core:  4, cta: 3 initialized @(4,0)
GPGPU-Sim uArch: core:  5, cta: 3 initialized @(4,0)
GPGPU-Sim uArch: core:  6, cta: 3 initialized @(4,0)
GPGPU-Sim uArch: core:  7, cta: 3 initialized @(4,0)
GPGPU-Sim uArch: core:  8, cta: 3 initialized @(4,0)
GPGPU-Sim uArch: core:  9, cta: 3 initialized @(4,0)
GPGPU-Sim uArch: core: 10, cta: 3 initialized @(4,0)
GPGPU-Sim uArch: core: 11, cta: 3 initialized @(4,0)
GPGPU-Sim uArch: core: 12, cta: 3 initialized @(4,0)
GPGPU-Sim uArch: core: 13, cta: 3 initialized @(4,0)
GPGPU-Sim uArch: core: 14, cta: 3 initialized @(4,0)
GPGPU-Sim uArch: core:  0, cta: 3 initialized @(4,0)
GPGPU-Sim uArch: core:  1, cta: 4 initialized @(5,0)
GPGPU-Sim uArch: core:  2, cta: 4 initialized @(5,0)
GPGPU-Sim uArch: core:  3, cta: 4 initialized @(5,0)
GPGPU-Sim uArch: core:  4, cta: 4 initialized @(5,0)
GPGPU-Sim uArch: core:  5, cta: 4 initialized @(5,0)
GPGPU-Sim uArch: core:  6, cta: 4 initialized @(5,0)
GPGPU-Sim uArch: core:  7, cta: 4 initialized @(5,0)
GPGPU-Sim uArch: core:  8, cta: 4 initialized @(5,0)
GPGPU-Sim uArch: core:  9, cta: 4 initialized @(5,0)
GPGPU-Sim uArch: core: 10, cta: 4 initialized @(5,0)
GPGPU-Sim uArch: core: 11, cta: 4 initialized @(5,0)
GPGPU-Sim uArch: core: 12, cta: 4 initialized @(5,0)
GPGPU-Sim uArch: core: 13, cta: 4 initialized @(5,0)
GPGPU-Sim uArch: core: 14, cta: 4 initialized @(5,0)
GPGPU-Sim uArch: core:  0, cta: 4 initialized @(5,0)
GPGPU-Sim uArch: cycles simulated: 500  inst.: 36160 (ipc=72.3) sim_rate=36160 (inst/sec) elapsed = 0:0:00:01 / Wed May  1 12:42:39 2019
GPGPU-Sim PTX: 100000 instructions simulated : ctaid=(8,0,0) tid=(15,5,0)
GPGPU-Sim PTX: 200000 instructions simulated : ctaid=(8,2,0) tid=(15,1,0)
GPGPU-Sim uArch: cycles simulated: 3000  inst.: 237312 (ipc=79.1) sim_rate=118656 (inst/sec) elapsed = 0:0:00:02 / Wed May  1 12:42:40 2019
GPGPU-Sim PTX: 300000 instructions simulated : ctaid=(11,3,0) tid=(15,5,0)
GPGPU-Sim PTX: 400000 instructions simulated : ctaid=(3,3,0) tid=(15,1,0)
GPGPU-Sim PTX: 500000 instructions simulated : ctaid=(0,1,0) tid=(15,1,0)
GPGPU-Sim uArch: cycles simulated: 4500  inst.: 580096 (ipc=128.9) sim_rate=193365 (inst/sec) elapsed = 0:0:00:03 / Wed May  1 12:42:41 2019
GPGPU-Sim PTX: 600000 instructions simulated : ctaid=(14,1,0) tid=(15,7,0)
GPGPU-Sim PTX: 700000 instructions simulated : ctaid=(1,3,0) tid=(15,5,0)
GPGPU-Sim PTX: 800000 instructions simulated : ctaid=(3,2,0) tid=(15,3,0)
GPGPU-Sim PTX: 900000 instructions simulated : ctaid=(12,3,0) tid=(15,1,0)
GPGPU-Sim PTX: 1000000 instructions simulated : ctaid=(4,2,0) tid=(15,3,0)
GPGPU-Sim uArch: cycles simulated: 6000  inst.: 1026944 (ipc=171.2) sim_rate=256736 (inst/sec) elapsed = 0:0:00:04 / Wed May  1 12:42:42 2019
GPGPU-Sim PTX: 1100000 instructions simulated : ctaid=(15,1,0) tid=(15,7,0)
GPGPU-Sim PTX: 1200000 instructions simulated : ctaid=(4,4,0) tid=(15,7,0)
GPGPU-Sim PTX: 1300000 instructions simulated : ctaid=(15,3,0) tid=(15,7,0)
GPGPU-Sim PTX: 1400000 instructions simulated : ctaid=(7,4,0) tid=(15,3,0)
GPGPU-Sim PTX: 1500000 instructions simulated : ctaid=(15,0,0) tid=(15,5,0)
GPGPU-Sim PTX: 1600000 instructions simulated : ctaid=(7,1,0) tid=(15,7,0)
GPGPU-Sim PTX: 1700000 instructions simulated : ctaid=(10,4,0) tid=(15,7,0)
GPGPU-Sim PTX: 1800000 instructions simulated : ctaid=(5,0,0) tid=(15,5,0)
GPGPU-Sim PTX: 1900000 instructions simulated : ctaid=(3,2,0) tid=(15,1,0)
GPGPU-Sim uArch: cycles simulated: 7500  inst.: 1871712 (ipc=249.6) sim_rate=374342 (inst/sec) elapsed = 0:0:00:05 / Wed May  1 12:42:43 2019
GPGPU-Sim PTX: 2000000 instructions simulated : ctaid=(13,0,0) tid=(15,7,0)
GPGPU-Sim PTX: 2100000 instructions simulated : ctaid=(7,2,0) tid=(15,5,0)
GPGPU-Sim PTX: 2200000 instructions simulated : ctaid=(3,0,0) tid=(15,1,0)
GPGPU-Sim PTX: 2300000 instructions simulated : ctaid=(4,1,0) tid=(15,1,0)
GPGPU-Sim PTX: 2400000 instructions simulated : ctaid=(13,2,0) tid=(15,1,0)
GPGPU-Sim PTX: 2500000 instructions simulated : ctaid=(12,0,0) tid=(15,7,0)
GPGPU-Sim PTX: 2600000 instructions simulated : ctaid=(13,1,0) tid=(15,1,0)
GPGPU-Sim uArch: cycles simulated: 8500  inst.: 2605920 (ipc=306.6) sim_rate=434320 (inst/sec) elapsed = 0:0:00:06 / Wed May  1 12:42:44 2019
GPGPU-Sim PTX: 2700000 instructions simulated : ctaid=(3,2,0) tid=(15,5,0)
GPGPU-Sim PTX: 2800000 instructions simulated : ctaid=(15,0,0) tid=(15,1,0)
GPGPU-Sim PTX: 2900000 instructions simulated : ctaid=(6,3,0) tid=(15,5,0)
GPGPU-Sim PTX: 3000000 instructions simulated : ctaid=(13,0,0) tid=(15,5,0)
GPGPU-Sim PTX: 3100000 instructions simulated : ctaid=(9,4,0) tid=(15,7,0)
GPGPU-Sim PTX: 3200000 instructions simulated : ctaid=(7,2,0) tid=(15,3,0)
GPGPU-Sim PTX: 3300000 instructions simulated : ctaid=(15,3,0) tid=(15,7,0)
GPGPU-Sim uArch: cycles simulated: 9500  inst.: 3242208 (ipc=341.3) sim_rate=463172 (inst/sec) elapsed = 0:0:00:07 / Wed May  1 12:42:45 2019
GPGPU-Sim PTX: 3400000 instructions simulated : ctaid=(15,2,0) tid=(15,1,0)
GPGPU-Sim PTX: 3500000 instructions simulated : ctaid=(1,2,0) tid=(15,7,0)
GPGPU-Sim PTX: 3600000 instructions simulated : ctaid=(11,0,0) tid=(15,1,0)
GPGPU-Sim uArch: cycles simulated: 10500  inst.: 3579904 (ipc=340.9) sim_rate=447488 (inst/sec) elapsed = 0:0:00:08 / Wed May  1 12:42:46 2019
GPGPU-Sim PTX: 3700000 instructions simulated : ctaid=(14,3,0) tid=(15,1,0)
GPGPU-Sim PTX: 3800000 instructions simulated : ctaid=(0,0,0) tid=(15,3,0)
GPGPU-Sim PTX: 3900000 instructions simulated : ctaid=(1,4,0) tid=(15,7,0)
GPGPU-Sim PTX: 4000000 instructions simulated : ctaid=(14,1,0) tid=(15,5,0)
GPGPU-Sim PTX: 4100000 instructions simulated : ctaid=(9,0,0) tid=(15,5,0)
GPGPU-Sim uArch: cycles simulated: 12000  inst.: 4041600 (ipc=336.8) sim_rate=449066 (inst/sec) elapsed = 0:0:00:09 / Wed May  1 12:42:47 2019
GPGPU-Sim PTX: 4200000 instructions simulated : ctaid=(5,3,0) tid=(15,1,0)
GPGPU-Sim PTX: 4300000 instructions simulated : ctaid=(2,3,0) tid=(15,1,0)
GPGPU-Sim PTX: 4400000 instructions simulated : ctaid=(8,3,0) tid=(15,1,0)
GPGPU-Sim PTX: 4500000 instructions simulated : ctaid=(7,4,0) tid=(15,5,0)
GPGPU-Sim PTX: 4600000 instructions simulated : ctaid=(3,0,0) tid=(5,2,0)
GPGPU-Sim PTX: 4700000 instructions simulated : ctaid=(1,4,0) tid=(9,0,0)
GPGPU-Sim PTX: 4800000 instructions simulated : ctaid=(9,4,0) tid=(15,2,0)
GPGPU-Sim PTX: 4900000 instructions simulated : ctaid=(7,1,0) tid=(15,4,0)
GPGPU-Sim uArch: cycles simulated: 13500  inst.: 4769232 (ipc=353.3) sim_rate=476923 (inst/sec) elapsed = 0:0:00:10 / Wed May  1 12:42:48 2019
GPGPU-Sim PTX: 5000000 instructions simulated : ctaid=(12,3,0) tid=(15,0,0)
GPGPU-Sim PTX: 5100000 instructions simulated : ctaid=(9,3,0) tid=(15,4,0)
GPGPU-Sim PTX: 5200000 instructions simulated : ctaid=(8,4,0) tid=(15,2,0)
GPGPU-Sim PTX: 5300000 instructions simulated : ctaid=(11,1,0) tid=(15,6,0)
GPGPU-Sim PTX: 5400000 instructions simulated : ctaid=(12,1,0) tid=(15,4,0)
GPGPU-Sim PTX: 5500000 instructions simulated : ctaid=(4,2,0) tid=(4,6,0)
GPGPU-Sim PTX: 5600000 instructions simulated : ctaid=(5,1,0) tid=(2,7,0)
GPGPU-Sim PTX: 5700000 instructions simulated : ctaid=(3,3,0) tid=(8,1,0)
GPGPU-Sim uArch: cycles simulated: 14500  inst.: 5541861 (ipc=382.2) sim_rate=503805 (inst/sec) elapsed = 0:0:00:11 / Wed May  1 12:42:49 2019
GPGPU-Sim PTX: 5800000 instructions simulated : ctaid=(7,2,0) tid=(15,6,0)
GPGPU-Sim PTX: 5900000 instructions simulated : ctaid=(13,1,0) tid=(7,3,0)
GPGPU-Sim PTX: 6000000 instructions simulated : ctaid=(4,3,0) tid=(2,1,0)
GPGPU-Sim PTX: 6100000 instructions simulated : ctaid=(12,0,0) tid=(11,7,0)
GPGPU-Sim PTX: 6200000 instructions simulated : ctaid=(4,4,0) tid=(11,3,0)
GPGPU-Sim uArch: cycles simulated: 15500  inst.: 6043620 (ipc=389.9) sim_rate=503635 (inst/sec) elapsed = 0:0:00:12 / Wed May  1 12:42:50 2019
GPGPU-Sim PTX: 6300000 instructions simulated : ctaid=(8,2,0) tid=(11,3,0)
GPGPU-Sim PTX: 6400000 instructions simulated : ctaid=(9,4,0) tid=(11,5,0)
GPGPU-Sim PTX: 6500000 instructions simulated : ctaid=(5,3,0) tid=(11,3,0)
GPGPU-Sim PTX: 6600000 instructions simulated : ctaid=(13,1,0) tid=(11,1,0)
GPGPU-Sim uArch: cycles simulated: 17500  inst.: 6496196 (ipc=371.2) sim_rate=499707 (inst/sec) elapsed = 0:0:00:13 / Wed May  1 12:42:51 2019
GPGPU-Sim PTX: 6700000 instructions simulated : ctaid=(15,2,0) tid=(11,1,0)
GPGPU-Sim PTX: 6800000 instructions simulated : ctaid=(10,4,0) tid=(11,7,0)
GPGPU-Sim PTX: 6900000 instructions simulated : ctaid=(6,0,0) tid=(11,7,0)
GPGPU-Sim PTX: 7000000 instructions simulated : ctaid=(10,0,0) tid=(11,3,0)
GPGPU-Sim uArch: cycles simulated: 18500  inst.: 6859108 (ipc=370.8) sim_rate=489936 (inst/sec) elapsed = 0:0:00:14 / Wed May  1 12:42:52 2019
GPGPU-Sim PTX: 7100000 instructions simulated : ctaid=(5,1,0) tid=(11,3,0)
GPGPU-Sim PTX: 7200000 instructions simulated : ctaid=(14,0,0) tid=(11,1,0)
GPGPU-Sim PTX: 7300000 instructions simulated : ctaid=(5,2,0) tid=(11,7,0)
GPGPU-Sim PTX: 7400000 instructions simulated : ctaid=(2,4,0) tid=(11,1,0)
GPGPU-Sim PTX: 7500000 instructions simulated : ctaid=(8,0,0) tid=(11,3,0)
GPGPU-Sim uArch: cycles simulated: 20000  inst.: 7377060 (ipc=368.9) sim_rate=491804 (inst/sec) elapsed = 0:0:00:15 / Wed May  1 12:42:53 2019
GPGPU-Sim PTX: 7600000 instructions simulated : ctaid=(13,3,0) tid=(11,7,0)
GPGPU-Sim PTX: 7700000 instructions simulated : ctaid=(14,0,0) tid=(11,5,0)
GPGPU-Sim PTX: 7800000 instructions simulated : ctaid=(2,2,0) tid=(11,7,0)
GPGPU-Sim PTX: 7900000 instructions simulated : ctaid=(6,3,0) tid=(11,3,0)
GPGPU-Sim PTX: 8000000 instructions simulated : ctaid=(13,2,0) tid=(11,5,0)
GPGPU-Sim PTX: 8100000 instructions simulated : ctaid=(5,3,0) tid=(11,5,0)
GPGPU-Sim uArch: cycles simulated: 21500  inst.: 7941412 (ipc=369.4) sim_rate=496338 (inst/sec) elapsed = 0:0:00:16 / Wed May  1 12:42:54 2019
GPGPU-Sim PTX: 8200000 instructions simulated : ctaid=(1,0,0) tid=(11,1,0)
GPGPU-Sim PTX: 8300000 instructions simulated : ctaid=(7,4,0) tid=(11,5,0)
GPGPU-Sim PTX: 8400000 instructions simulated : ctaid=(0,0,0) tid=(11,3,0)
GPGPU-Sim PTX: 8500000 instructions simulated : ctaid=(14,2,0) tid=(11,1,0)
GPGPU-Sim PTX: 8600000 instructions simulated : ctaid=(14,3,0) tid=(11,7,0)
GPGPU-Sim PTX: 8700000 instructions simulated : ctaid=(2,1,0) tid=(12,6,0)
GPGPU-Sim PTX: 8800000 instructions simulated : ctaid=(0,0,0) tid=(1,6,0)
GPGPU-Sim PTX: 8900000 instructions simulated : ctaid=(15,2,0) tid=(11,3,0)
GPGPU-Sim PTX: 9000000 instructions simulated : ctaid=(15,1,0) tid=(8,0,0)
GPGPU-Sim PTX: 9100000 instructions simulated : ctaid=(15,0,0) tid=(15,6,0)
GPGPU-Sim uArch: cycles simulated: 23000  inst.: 8878206 (ipc=386.0) sim_rate=522247 (inst/sec) elapsed = 0:0:00:17 / Wed May  1 12:42:55 2019
GPGPU-Sim PTX: 9200000 instructions simulated : ctaid=(10,2,0) tid=(15,7,0)
GPGPU-Sim PTX: 9300000 instructions simulated : ctaid=(0,3,0) tid=(7,1,0)
GPGPU-Sim PTX: 9400000 instructions simulated : ctaid=(9,0,0) tid=(4,0,0)
GPGPU-Sim PTX: 9500000 instructions simulated : ctaid=(14,0,0) tid=(14,0,0)
GPGPU-Sim uArch: cycles simulated: 23500  inst.: 9281567 (ipc=395.0) sim_rate=515642 (inst/sec) elapsed = 0:0:00:18 / Wed May  1 12:42:56 2019
GPGPU-Sim PTX: 9600000 instructions simulated : ctaid=(4,1,0) tid=(12,6,0)
GPGPU-Sim PTX: 9700000 instructions simulated : ctaid=(13,0,0) tid=(8,4,0)
GPGPU-Sim PTX: 9800000 instructions simulated : ctaid=(5,4,0) tid=(8,6,0)
GPGPU-Sim PTX: 9900000 instructions simulated : ctaid=(8,4,0) tid=(4,5,0)
GPGPU-Sim PTX: 10000000 instructions simulated : ctaid=(9,2,0) tid=(11,7,0)
GPGPU-Sim PTX: 10100000 instructions simulated : ctaid=(7,2,0) tid=(13,4,0)
GPGPU-Sim uArch: cycles simulated: 25000  inst.: 9911545 (ipc=396.5) sim_rate=521660 (inst/sec) elapsed = 0:0:00:19 / Wed May  1 12:42:57 2019
GPGPU-Sim PTX: 10200000 instructions simulated : ctaid=(11,3,0) tid=(3,5,0)
GPGPU-Sim PTX: 10300000 instructions simulated : ctaid=(14,0,0) tid=(4,2,0)
GPGPU-Sim uArch: Shader 14 finished CTA #0 (25733,0), 4 CTAs running
GPGPU-Sim uArch: core: 14, cta: 0 initialized @(25734,0)
GPGPU-Sim PTX: 10400000 instructions simulated : ctaid=(7,2,0) tid=(10,4,0)
GPGPU-Sim uArch: Shader 0 finished CTA #0 (25792,0), 4 CTAs running
GPGPU-Sim uArch: core:  0, cta: 0 initialized @(25793,0)
GPGPU-Sim uArch: Shader 0 finished CTA #1 (25844,0), 4 CTAs running
GPGPU-Sim uArch: core:  0, cta: 1 initialized @(25845,0)
GPGPU-Sim uArch: Shader 8 finished CTA #4 (25879,0), 4 CTAs running
GPGPU-Sim uArch: core:  8, cta: 4 initialized @(25880,0)
GPGPU-Sim uArch: Shader 0 finished CTA #3 (25886,0), 4 CTAs running
GPGPU-Sim uArch: Shader 4 finished CTA #2 (25886,0), 4 CTAs running
GPGPU-Sim uArch: core:  0, cta: 3 initialized @(25887,0)
GPGPU-Sim uArch: core:  4, cta: 2 initialized @(25887,0)
GPGPU-Sim uArch: Shader 0 finished CTA #2 (25898,0), 4 CTAs running
GPGPU-Sim uArch: core:  0, cta: 2 initialized @(25899,0)
GPGPU-Sim uArch: Shader 1 finished CTA #0 (25900,0), 4 CTAs running
GPGPU-Sim uArch: core:  1, cta: 0 initialized @(25901,0)
GPGPU-Sim uArch: Shader 2 finished CTA #0 (25904,0), 4 CTAs running
GPGPU-Sim uArch: core:  2, cta: 0 initialized @(25905,0)
GPGPU-Sim uArch: Shader 0 finished CTA #4 (25906,0), 4 CTAs running
GPGPU-Sim uArch: core:  0, cta: 4 initialized @(25907,0)
GPGPU-Sim uArch: Shader 8 finished CTA #2 (25912,0), 4 CTAs running
GPGPU-Sim uArch: core:  8, cta: 2 initialized @(25913,0)
GPGPU-Sim uArch: Shader 1 finished CTA #1 (25920,0), 4 CTAs running
GPGPU-Sim uArch: core:  1, cta: 1 initialized @(25921,0)
GPGPU-Sim uArch: Shader 8 finished CTA #3 (25924,0), 4 CTAs running
GPGPU-Sim uArch: core:  8, cta: 3 initialized @(25925,0)
GPGPU-Sim uArch: Shader 3 finished CTA #0 (25930,0), 4 CTAs running
GPGPU-Sim uArch: core:  3, cta: 0 initialized @(25931,0)
GPGPU-Sim uArch: Shader 4 finished CTA #1 (25938,0), 4 CTAs running
GPGPU-Sim uArch: core:  4, cta: 1 initialized @(25939,0)
GPGPU-Sim uArch: Shader 1 finished CTA #2 (25948,0), 4 CTAs running
GPGPU-Sim uArch: core:  1, cta: 2 initialized @(25949,0)
GPGPU-Sim uArch: Shader 2 finished CTA #1 (25952,0), 4 CTAs running
GPGPU-Sim uArch: core:  2, cta: 1 initialized @(25953,0)
GPGPU-Sim uArch: Shader 1 finished CTA #3 (25960,0), 4 CTAs running
GPGPU-Sim uArch: Shader 3 finished CTA #1 (25960,0), 4 CTAs running
GPGPU-Sim uArch: core:  3, cta: 1 initialized @(25961,0)
GPGPU-Sim uArch: core:  1, cta: 3 initialized @(25961,0)
GPGPU-Sim uArch: Shader 2 finished CTA #3 (25968,0), 4 CTAs running
GPGPU-Sim uArch: core:  2, cta: 3 initialized @(25969,0)
GPGPU-Sim uArch: Shader 5 finished CTA #2 (25969,0), 4 CTAs running
GPGPU-Sim uArch: core:  5, cta: 2 initialized @(25970,0)
GPGPU-Sim uArch: Shader 2 finished CTA #2 (25980,0), 4 CTAs running
GPGPU-Sim uArch: core:  2, cta: 2 initialized @(25981,0)
GPGPU-Sim uArch: Shader 1 finished CTA #4 (25984,0), 4 CTAs running
GPGPU-Sim uArch: core:  1, cta: 4 initialized @(25985,0)
GPGPU-Sim uArch: Shader 3 finished CTA #2 (25998,0), 4 CTAs running
GPGPU-Sim uArch: core:  3, cta: 2 initialized @(25999,0)
GPGPU-Sim uArch: cycles simulated: 26000  inst.: 10191263 (ipc=392.0) sim_rate=509563 (inst/sec) elapsed = 0:0:00:20 / Wed May  1 12:42:58 2019
GPGPU-Sim uArch: Shader 3 finished CTA #4 (26010,0), 4 CTAs running
GPGPU-Sim uArch: core:  3, cta: 4 initialized @(26011,0)
GPGPU-Sim uArch: Shader 4 finished CTA #4 (26012,0), 4 CTAs running
GPGPU-Sim uArch: core:  4, cta: 4 initialized @(26013,0)
GPGPU-Sim uArch: Shader 5 finished CTA #3 (26021,0), 4 CTAs running
GPGPU-Sim uArch: core:  5, cta: 3 initialized @(26022,0)
GPGPU-Sim uArch: Shader 6 finished CTA #2 (26026,0), 4 CTAs running
GPGPU-Sim uArch: core:  6, cta: 2 initialized @(26027,0)
GPGPU-Sim uArch: Shader 4 finished CTA #3 (26034,0), 4 CTAs running
GPGPU-Sim uArch: core:  4, cta: 3 initialized @(26035,0)
GPGPU-Sim uArch: Shader 2 finished CTA #4 (26038,0), 4 CTAs running
GPGPU-Sim uArch: core:  2, cta: 4 initialized @(26039,0)
GPGPU-Sim uArch: Shader 5 finished CTA #4 (26040,0), 4 CTAs running
GPGPU-Sim uArch: core:  5, cta: 4 initialized @(26041,0)
GPGPU-Sim uArch: Shader 6 finished CTA #3 (26044,0), 4 CTAs running
GPGPU-Sim uArch: core:  6, cta: 3 initialized @(26045,0)
GPGPU-Sim uArch: Shader 7 finished CTA #4 (26056,0), 4 CTAs running
GPGPU-Sim uArch: core:  7, cta: 4 initialized @(26057,0)
GPGPU-Sim uArch: Shader 6 finished CTA #4 (26074,0), 4 CTAs running
GPGPU-Sim uArch: core:  6, cta: 4 initialized @(26075,0)
GPGPU-Sim PTX: 10500000 instructions simulated : ctaid=(3,0,0) tid=(6,2,0)
GPGPU-Sim uArch: Shader 7 finished CTA #3 (26100,0), 4 CTAs running
GPGPU-Sim uArch: core:  7, cta: 3 initialized @(26101,0)
GPGPU-Sim uArch: Shader 9 finished CTA #3 (26114,0), 4 CTAs running
GPGPU-Sim uArch: core:  9, cta: 3 initialized @(26115,0)
GPGPU-Sim uArch: Shader 9 finished CTA #4 (26126,0), 4 CTAs running
GPGPU-Sim uArch: core:  9, cta: 4 initialized @(26127,0)
GPGPU-Sim uArch: Shader 3 finished CTA #3 (26134,0), 4 CTAs running
GPGPU-Sim uArch: core:  3, cta: 3 initialized @(26135,0)
GPGPU-Sim uArch: Shader 10 finished CTA #4 (26285,0), 4 CTAs running
GPGPU-Sim uArch: core: 10, cta: 4 initialized @(26286,0)
GPGPU-Sim PTX: 10600000 instructions simulated : ctaid=(14,4,0) tid=(8,1,0)
GPGPU-Sim PTX: 10700000 instructions simulated : ctaid=(0,5,0) tid=(7,1,0)
GPGPU-Sim PTX: 10800000 instructions simulated : ctaid=(0,5,0) tid=(7,1,0)
GPGPU-Sim PTX: 10900000 instructions simulated : ctaid=(7,4,0) tid=(14,1,0)
GPGPU-Sim uArch: cycles simulated: 27500  inst.: 10687186 (ipc=388.6) sim_rate=508913 (inst/sec) elapsed = 0:0:00:21 / Wed May  1 12:42:59 2019
GPGPU-Sim PTX: 11000000 instructions simulated : ctaid=(9,0,0) tid=(10,6,0)
GPGPU-Sim PTX: 11100000 instructions simulated : ctaid=(4,0,0) tid=(15,0,0)
GPGPU-Sim PTX: 11200000 instructions simulated : ctaid=(9,0,0) tid=(13,7,0)
GPGPU-Sim PTX: 11300000 instructions simulated : ctaid=(4,6,0) tid=(2,2,0)
GPGPU-Sim PTX: 11400000 instructions simulated : ctaid=(11,4,0) tid=(11,1,0)
GPGPU-Sim uArch: cycles simulated: 28500  inst.: 11187423 (ipc=392.5) sim_rate=508519 (inst/sec) elapsed = 0:0:00:22 / Wed May  1 12:43:00 2019
GPGPU-Sim PTX: 11500000 instructions simulated : ctaid=(9,6,0) tid=(15,1,0)
GPGPU-Sim PTX: 11600000 instructions simulated : ctaid=(9,2,0) tid=(0,5,0)
GPGPU-Sim PTX: 11700000 instructions simulated : ctaid=(9,6,0) tid=(15,5,0)
GPGPU-Sim PTX: 11800000 instructions simulated : ctaid=(15,6,0) tid=(1,5,0)
GPGPU-Sim PTX: 11900000 instructions simulated : ctaid=(15,5,0) tid=(6,2,0)
GPGPU-Sim PTX: 12000000 instructions simulated : ctaid=(6,5,0) tid=(15,3,0)
GPGPU-Sim uArch: cycles simulated: 29500  inst.: 11721181 (ipc=397.3) sim_rate=509616 (inst/sec) elapsed = 0:0:00:23 / Wed May  1 12:43:01 2019
GPGPU-Sim PTX: 12100000 instructions simulated : ctaid=(0,6,0) tid=(6,4,0)
GPGPU-Sim PTX: 12200000 instructions simulated : ctaid=(10,5,0) tid=(8,5,0)
GPGPU-Sim PTX: 12300000 instructions simulated : ctaid=(5,0,0) tid=(2,5,0)
GPGPU-Sim uArch: Shader 14 finished CTA #2 (29944,0), 4 CTAs running
GPGPU-Sim uArch: core: 14, cta: 2 initialized @(29945,0)
GPGPU-Sim PTX: 12400000 instructions simulated : ctaid=(1,5,0) tid=(9,0,0)
GPGPU-Sim PTX: 12500000 instructions simulated : ctaid=(8,4,0) tid=(5,0,0)
GPGPU-Sim PTX: 12600000 instructions simulated : ctaid=(15,4,0) tid=(14,6,0)
GPGPU-Sim uArch: cycles simulated: 30500  inst.: 12361611 (ipc=405.3) sim_rate=515067 (inst/sec) elapsed = 0:0:00:24 / Wed May  1 12:43:02 2019
GPGPU-Sim PTX: 12700000 instructions simulated : ctaid=(8,0,0) tid=(11,1,0)
GPGPU-Sim PTX: 12800000 instructions simulated : ctaid=(2,6,0) tid=(0,1,0)
GPGPU-Sim PTX: 12900000 instructions simulated : ctaid=(6,6,0) tid=(14,7,0)
GPGPU-Sim uArch: Shader 7 finished CTA #2 (30931,0), 4 CTAs running
GPGPU-Sim uArch: core:  7, cta: 2 initialized @(30932,0)
GPGPU-Sim PTX: 13000000 instructions simulated : ctaid=(5,5,0) tid=(9,3,0)
GPGPU-Sim PTX: 13100000 instructions simulated : ctaid=(12,6,0) tid=(8,7,0)
GPGPU-Sim PTX: 13200000 instructions simulated : ctaid=(8,3,0) tid=(11,2,0)
GPGPU-Sim uArch: cycles simulated: 31500  inst.: 12925401 (ipc=410.3) sim_rate=517016 (inst/sec) elapsed = 0:0:00:25 / Wed May  1 12:43:03 2019
GPGPU-Sim PTX: 13300000 instructions simulated : ctaid=(0,6,0) tid=(10,3,0)
GPGPU-Sim PTX: 13400000 instructions simulated : ctaid=(4,5,0) tid=(5,3,0)
GPGPU-Sim PTX: 13500000 instructions simulated : ctaid=(8,6,0) tid=(15,4,0)
GPGPU-Sim PTX: 13600000 instructions simulated : ctaid=(9,6,0) tid=(6,3,0)
GPGPU-Sim PTX: 13700000 instructions simulated : ctaid=(14,4,0) tid=(3,1,0)
GPGPU-Sim PTX: 13800000 instructions simulated : ctaid=(3,6,0) tid=(11,5,0)
GPGPU-Sim uArch: cycles simulated: 32500  inst.: 13463978 (ipc=414.3) sim_rate=517845 (inst/sec) elapsed = 0:0:00:26 / Wed May  1 12:43:04 2019
GPGPU-Sim PTX: 13900000 instructions simulated : ctaid=(11,6,0) tid=(4,6,0)
GPGPU-Sim PTX: 14000000 instructions simulated : ctaid=(9,5,0) tid=(10,3,0)
GPGPU-Sim PTX: 14100000 instructions simulated : ctaid=(9,6,0) tid=(5,6,0)
GPGPU-Sim PTX: 14200000 instructions simulated : ctaid=(0,5,0) tid=(13,3,0)
GPGPU-Sim PTX: 14300000 instructions simulated : ctaid=(6,3,0) tid=(12,6,0)
GPGPU-Sim PTX: 14400000 instructions simulated : ctaid=(3,6,0) tid=(0,5,0)
GPGPU-Sim uArch: cycles simulated: 33500  inst.: 14035226 (ipc=419.0) sim_rate=519823 (inst/sec) elapsed = 0:0:00:27 / Wed May  1 12:43:05 2019
GPGPU-Sim PTX: 14500000 instructions simulated : ctaid=(14,6,0) tid=(13,6,0)
GPGPU-Sim PTX: 14600000 instructions simulated : ctaid=(3,5,0) tid=(0,5,0)
GPGPU-Sim PTX: 14700000 instructions simulated : ctaid=(12,6,0) tid=(5,4,0)
GPGPU-Sim PTX: 14800000 instructions simulated : ctaid=(14,6,0) tid=(14,0,0)
GPGPU-Sim PTX: 14900000 instructions simulated : ctaid=(5,6,0) tid=(10,3,0)
GPGPU-Sim PTX: 15000000 instructions simulated : ctaid=(12,5,0) tid=(1,4,0)
GPGPU-Sim uArch: cycles simulated: 34500  inst.: 14651289 (ipc=424.7) sim_rate=523260 (inst/sec) elapsed = 0:0:00:28 / Wed May  1 12:43:06 2019
GPGPU-Sim PTX: 15100000 instructions simulated : ctaid=(10,6,0) tid=(11,7,0)
GPGPU-Sim PTX: 15200000 instructions simulated : ctaid=(3,7,0) tid=(5,3,0)
GPGPU-Sim PTX: 15300000 instructions simulated : ctaid=(6,5,0) tid=(15,2,0)
GPGPU-Sim PTX: 15400000 instructions simulated : ctaid=(3,5,0) tid=(1,6,0)
GPGPU-Sim PTX: 15500000 instructions simulated : ctaid=(7,5,0) tid=(8,7,0)
GPGPU-Sim PTX: 15600000 instructions simulated : ctaid=(9,1,0) tid=(3,4,0)
GPGPU-Sim uArch: cycles simulated: 35500  inst.: 15183448 (ipc=427.7) sim_rate=523567 (inst/sec) elapsed = 0:0:00:29 / Wed May  1 12:43:07 2019
GPGPU-Sim PTX: 15700000 instructions simulated : ctaid=(1,7,0) tid=(12,1,0)
GPGPU-Sim PTX: 15800000 instructions simulated : ctaid=(7,5,0) tid=(12,2,0)
GPGPU-Sim PTX: 15900000 instructions simulated : ctaid=(14,4,0) tid=(14,2,0)
GPGPU-Sim PTX: 16000000 instructions simulated : ctaid=(13,6,0) tid=(1,7,0)
GPGPU-Sim uArch: cycles simulated: 36500  inst.: 15597859 (ipc=427.3) sim_rate=519928 (inst/sec) elapsed = 0:0:00:30 / Wed May  1 12:43:08 2019
GPGPU-Sim PTX: 16100000 instructions simulated : ctaid=(7,4,0) tid=(3,5,0)
GPGPU-Sim PTX: 16200000 instructions simulated : ctaid=(0,6,0) tid=(15,5,0)
GPGPU-Sim uArch: Shader 13 finished CTA #2 (36937,0), 4 CTAs running
GPGPU-Sim uArch: core: 13, cta: 2 initialized @(36938,0)
GPGPU-Sim PTX: 16300000 instructions simulated : ctaid=(1,6,0) tid=(5,3,0)
GPGPU-Sim PTX: 16400000 instructions simulated : ctaid=(12,5,0) tid=(10,4,0)
GPGPU-Sim uArch: cycles simulated: 37500  inst.: 16023613 (ipc=427.3) sim_rate=516890 (inst/sec) elapsed = 0:0:00:31 / Wed May  1 12:43:09 2019
GPGPU-Sim PTX: 16500000 instructions simulated : ctaid=(3,6,0) tid=(0,3,0)
GPGPU-Sim PTX: 16600000 instructions simulated : ctaid=(1,7,0) tid=(0,4,0)
GPGPU-Sim uArch: Shader 14 finished CTA #3 (37798,0), 4 CTAs running
GPGPU-Sim uArch: core: 14, cta: 3 initialized @(37799,0)
GPGPU-Sim PTX: 16700000 instructions simulated : ctaid=(5,5,0) tid=(12,7,0)
GPGPU-Sim PTX: 16800000 instructions simulated : ctaid=(0,6,0) tid=(7,5,0)
GPGPU-Sim PTX: 16900000 instructions simulated : ctaid=(7,1,0) tid=(2,1,0)
GPGPU-Sim uArch: cycles simulated: 38500  inst.: 16503132 (ipc=428.7) sim_rate=515722 (inst/sec) elapsed = 0:0:00:32 / Wed May  1 12:43:10 2019
GPGPU-Sim PTX: 17000000 instructions simulated : ctaid=(11,5,0) tid=(0,6,0)
GPGPU-Sim PTX: 17100000 instructions simulated : ctaid=(7,4,0) tid=(1,0,0)
GPGPU-Sim PTX: 17200000 instructions simulated : ctaid=(8,3,0) tid=(7,2,0)
GPGPU-Sim PTX: 17300000 instructions simulated : ctaid=(2,5,0) tid=(15,4,0)
GPGPU-Sim PTX: 17400000 instructions simulated : ctaid=(15,6,0) tid=(7,2,0)
GPGPU-Sim uArch: cycles simulated: 39500  inst.: 17005704 (ipc=430.5) sim_rate=515324 (inst/sec) elapsed = 0:0:00:33 / Wed May  1 12:43:11 2019
GPGPU-Sim PTX: 17500000 instructions simulated : ctaid=(4,6,0) tid=(13,7,0)
GPGPU-Sim uArch: Shader 5 finished CTA #2 (39723,0), 4 CTAs running
GPGPU-Sim uArch: core:  5, cta: 2 initialized @(39724,0)
GPGPU-Sim PTX: 17600000 instructions simulated : ctaid=(8,2,0) tid=(2,7,0)
GPGPU-Sim uArch: Shader 5 finished CTA #1 (39893,0), 4 CTAs running
GPGPU-Sim uArch: core:  5, cta: 1 initialized @(39894,0)
GPGPU-Sim uArch: Shader 5 finished CTA #3 (39927,0), 4 CTAs running
GPGPU-Sim uArch: core:  5, cta: 3 initialized @(39928,0)
GPGPU-Sim PTX: 17700000 instructions simulated : ctaid=(3,7,0) tid=(0,5,0)
GPGPU-Sim PTX: 17800000 instructions simulated : ctaid=(15,4,0) tid=(4,4,0)
GPGPU-Sim PTX: 17900000 instructions simulated : ctaid=(3,6,0) tid=(8,6,0)
GPGPU-Sim PTX: 18000000 instructions simulated : ctaid=(6,6,0) tid=(0,1,0)
GPGPU-Sim PTX: 18100000 instructions simulated : ctaid=(1,6,0) tid=(14,6,0)
GPGPU-Sim PTX: 18200000 instructions simulated : ctaid=(0,6,0) tid=(2,1,0)
GPGPU-Sim uArch: cycles simulated: 41000  inst.: 17724168 (ipc=432.3) sim_rate=521299 (inst/sec) elapsed = 0:0:00:34 / Wed May  1 12:43:12 2019
GPGPU-Sim uArch: Shader 12 finished CTA #3 (41126,0), 4 CTAs running
GPGPU-Sim uArch: core: 12, cta: 3 initialized @(41127,0)
GPGPU-Sim uArch: Shader 9 finished CTA #3 (41141,0), 4 CTAs running
GPGPU-Sim uArch: core:  9, cta: 3 initialized @(41142,0)
GPGPU-Sim PTX: 18300000 instructions simulated : ctaid=(7,3,0) tid=(12,5,0)
GPGPU-Sim uArch: Shader 9 finished CTA #4 (41312,0), 4 CTAs running
GPGPU-Sim uArch: core:  9, cta: 4 initialized @(41313,0)
GPGPU-Sim PTX: 18400000 instructions simulated : ctaid=(8,4,0) tid=(1,7,0)
GPGPU-Sim uArch: Shader 4 finished CTA #2 (41377,0), 4 CTAs running
GPGPU-Sim uArch: core:  4, cta: 2 initialized @(41378,0)
GPGPU-Sim uArch: Shader 11 finished CTA #4 (41498,0), 4 CTAs running
GPGPU-Sim uArch: core: 11, cta: 4 initialized @(41499,0)
GPGPU-Sim uArch: Shader 7 finished CTA #3 (41504,0), 4 CTAs running
GPGPU-Sim uArch: core:  7, cta: 3 initialized @(41505,0)
GPGPU-Sim uArch: Shader 10 finished CTA #4 (41521,0), 4 CTAs running
GPGPU-Sim uArch: core: 10, cta: 4 initialized @(41522,0)
GPGPU-Sim uArch: Shader 4 finished CTA #0 (41557,0), 4 CTAs running
GPGPU-Sim uArch: core:  4, cta: 0 initialized @(41558,0)
GPGPU-Sim PTX: 18500000 instructions simulated : ctaid=(15,4,0) tid=(2,0,0)
GPGPU-Sim uArch: Shader 7 finished CTA #4 (41700,0), 4 CTAs running
GPGPU-Sim uArch: core:  7, cta: 4 initialized @(41701,0)
GPGPU-Sim uArch: Shader 4 finished CTA #4 (41802,0), 4 CTAs running
GPGPU-Sim uArch: core:  4, cta: 4 initialized @(41803,0)
GPGPU-Sim PTX: 18600000 instructions simulated : ctaid=(7,7,0) tid=(11,0,0)
GPGPU-Sim uArch: Shader 10 finished CTA #3 (41876,0), 4 CTAs running
GPGPU-Sim uArch: core: 10, cta: 3 initialized @(41877,0)
GPGPU-Sim uArch: Shader 14 finished CTA #1 (41935,0), 4 CTAs running
GPGPU-Sim uArch: core: 14, cta: 1 initialized @(41936,0)
GPGPU-Sim uArch: Shader 14 finished CTA #0 (41956,0), 4 CTAs running
GPGPU-Sim uArch: core: 14, cta: 0 initialized @(41957,0)
GPGPU-Sim uArch: Shader 13 finished CTA #0 (41991,0), 4 CTAs running
GPGPU-Sim uArch: core: 13, cta: 0 initialized @(41992,0)
GPGPU-Sim uArch: cycles simulated: 42000  inst.: 18188091 (ipc=433.0) sim_rate=519659 (inst/sec) elapsed = 0:0:00:35 / Wed May  1 12:43:13 2019
GPGPU-Sim PTX: 18700000 instructions simulated : ctaid=(2,8,0) tid=(15,3,0)
GPGPU-Sim uArch: Shader 13 finished CTA #1 (42062,0), 4 CTAs running
GPGPU-Sim uArch: core: 13, cta: 1 initialized @(42063,0)
GPGPU-Sim uArch: Shader 13 finished CTA #3 (42196,0), 4 CTAs running
GPGPU-Sim uArch: core: 13, cta: 3 initialized @(42197,0)
GPGPU-Sim PTX: 18800000 instructions simulated : ctaid=(13,5,0) tid=(14,7,0)
GPGPU-Sim uArch: Shader 6 finished CTA #4 (42361,0), 4 CTAs running
GPGPU-Sim uArch: core:  6, cta: 4 initialized @(42362,0)
GPGPU-Sim uArch: Shader 6 finished CTA #3 (42424,0), 4 CTAs running
GPGPU-Sim uArch: core:  6, cta: 3 initialized @(42425,0)
GPGPU-Sim PTX: 18900000 instructions simulated : ctaid=(5,5,0) tid=(10,0,0)
GPGPU-Sim uArch: Shader 6 finished CTA #1 (42696,0), 4 CTAs running
GPGPU-Sim uArch: core:  6, cta: 1 initialized @(42697,0)
GPGPU-Sim uArch: Shader 8 finished CTA #4 (42716,0), 4 CTAs running
[...]
traffic_breakdown_memtocore[LOCAL_ACC_W] = 355880 {8:44485,}
maxmrqlatency = 405 
maxdqlatency = 0 
maxmflatency = 1126 
averagemflatency = 236 
max_icnt2mem_latency = 663 
max_icnt2sh_latency = 139398 
mrq_lat_table:16025 	692 	1012 	3700 	4256 	3427 	2495 	546 	23 	0 	0 	0 	0 	0 	0 	0 	0 	0 	0 	0 	0 	0 	0 	0 	0 	0 	0 	0 	0 	0 	0 	0 	
dq_lat_table:0 	0 	0 	0 	0 	0 	0 	0 	0 	0 	0 	0 	0 	0 	0 	0 	0 	0 	0 	0 	0 	0 	0 	0 	0 	0 	0 	0 	0 	0 	0 	0 	
mf_lat_table:0 	0 	0 	0 	0 	0 	0 	49214 	11807 	2892 	22 	0 	0 	0 	0 	0 	0 	0 	0 	0 	0 	0 	0 	0 	0 	0 	0 	0 	0 	0 	0 	0 	
icnt2mem_lat_table:0 	0 	0 	20628 	13628 	13710 	30169 	3046 	921 	15 	0 	0 	0 	0 	0 	0 	0 	0 	0 	0 	0 	0 	0 	0 	
icnt2sh_lat_table:0 	0 	0 	4772 	4228 	2028 	230 	0 	0 	276 	942 	2264 	3118 	2400 	5393 	11376 	24370 	2538 	0 	0 	0 	0 	0 	0 	
mf_lat_pw_table:0 	0 	0 	0 	0 	0 	0 	235 	16 	4 	0 	0 	0 	0 	0 	0 	0 	0 	0 	0 	0 	0 	0 	0 	0 	0 	0 	0 	0 	0 	0 	0 	
maximum concurrent accesses to same row:
dram[0]:        54        56        36        34        26        24        27        25        27        22        30        22        23        25        20        22 
dram[1]:        52        54        34        32        22        24        31        34        36        22        15        22        21        20        16        20 
dram[2]:        62        62        50        50        30        26        28        34        28        26        20        20        38        19        20        22 
dram[3]:        58        60        52        48        26        28        38        40        29        20        24        38        18        19        20        22 
dram[4]:        62        64        56        52        32        28        29        30        24        22        20        20        19        21        22        24 
dram[5]:        58        60        56        46        26        34        21        36        25        24        18        14        20        26        23        18 
maximum service time to same row:
dram[0]:     22352     17120     22237     16465     17846     16196     19498     16773     19224     19957     21113     20320     22567     22356     22345     31203 
dram[1]:     13833     16389     16426     17813     16273     19563     14471     14407     18996     18791     36336     44952     38227     51169     37150     24606 
dram[2]:     16411     20023     19989     17409     16163     16062     18450     18407     18828     18637     20069     27717     24176     29735     24169     26651 
dram[3]:     17013     25280     18825     30903     17420     14988     19849     18208     18835     18470     62418     19563     23868     29481     26887     19662 
dram[4]:     13741     23594     24725     29344     21427     33593     18842     18329     18795     18740     20512     29646     24190     31987     22238     20828 
dram[5]:     13756     17243     22426     29894     16135     20445     18615     16806     18578     18694     18650     20664     31500     21222     22597     20842 
average row accesses per activate:
dram[0]:  4.424657  5.271186  5.647059  4.847457  4.109756  3.421053  4.362500  3.744898  3.813725  4.174418  3.940476  3.230769  4.486111  4.060241  4.296875  4.537313 
dram[1]:  4.321839  5.754717  4.967213  5.456522  3.276786  3.670330  3.214876  3.975610  3.537190  3.371428  3.375000  4.253521  3.504348  4.646154  4.886793  4.689655 
dram[2]:  5.980000  6.369565  6.636364  5.653846  3.617021  3.536842  3.563107  4.805195  3.938776  3.357723  3.096491  3.956044  4.410256  3.355372  4.287671  4.737705 
dram[3]:  5.383333  4.739130  7.027027  5.196429  3.857143  3.107438  4.213333  3.460177  3.927083  3.123188  3.787500  3.597826  4.044944  3.654206  4.142857  4.257143 
dram[4]:  5.644068  7.850000  6.395349  5.216667  3.879518  3.622222  4.172840  3.700000  3.787879  3.450980  3.340206  3.398058  3.850575  4.785714  6.500000  4.338235 
dram[5]:  5.147059  8.121951  6.957447  5.132075  3.505050  4.036145  3.338583  4.011765  3.615385  4.144444  3.401869  3.776471  4.212766  4.283951  4.109756  4.041096 
average row locality = 32176/7827 = 4.110898
number of total memory accesses made:
dram[0]:         0         0         0         0         0         0         0         0         0         0         0         0         0         0         0         0 
dram[1]:         0         0         0         0         0         0         0         0         0         0         0         0         0         0         0         0 
dram[2]:         0         0         0         0         0         0         0         0         0         0         0         0         0         0         0         0 
dram[3]:         0         0         0         0         0         0         0         0         0         0         0         0         0         0         0         0 
dram[4]:         0         0         0         0         0         0         0         0         0         0         0         0         0         0         0         0 
dram[5]:         0         0         0         0         0         0         0         0         0         0         0         0         0         0         0         0 
total accesses: 0
min_bank_accesses = 0!
min_chip_accesses = 0!
number of total read accesses:
dram[0]:       147       136       124       125       137       133       139       147       156       146       131       156       137       140       123       133 
dram[1]:       168       133       128       107       150       134       155       130       175       143       135       124       161       132       115       122 
dram[2]:       132       133       128       127       139       135       150       149       162       169       144       145       147       168       136       127 
dram[3]:       141       144       114       124       130       154       128       158       152       175       124       140       148       164       127       128 
dram[4]:       147       136       118       133       133       136       139       151       154       148       132       146       145       142       116       132 
dram[5]:       154       144       142       116       148       134       172       137       156       150       150       130       165       150       141       131 
total reads: 13492
bank skew: 175/107 = 1.64
chip skew: 2320/2208 = 1.05
number of total write accesses:
dram[0]:       176       175       164       161       200       192       210       220       233       213       200       222       186       197       152       171 
dram[1]:       208       172       175       144       217       200       234       196       253       211       189       178       242       170       144       150 
dram[2]:       167       160       164       167       201       201       217       221       224       244       209       215       197       238       177       162 
dram[3]:       182       183       146       167       194       222       188       233       225       256       179       191       212       227       163       170 
dram[4]:       186       178       157       180       189       190       199       219       221       204       192       204       190       193       144       163 
dram[5]:       196       189       185       156       199       201       252       204       220       223       214       191       231       197       196       164 
total reads: 18684
bank skew: 256/144 = 1.78
chip skew: 3218/3009 = 1.07
average mf latency per bank:
dram[0]:        490       420       486       485       441       429       522       481       467       481       518       476       532       506       542       482
dram[1]:        443       424       442       524       404       435       461       554       421       477       520       562       408       553       563       513
dram[2]:        478       537       499       500       441       454       482       496       452       415       485       475       486       400       468       500
dram[3]:        421       453       552       475       443       400       566       439       461       392       539       507       469       400       494       481
dram[4]:        429       403       517       462       461       454       551       463       482       487       527       496       499       504       555       497
dram[5]:        395       402       434       503       424       441       404       502       445       447       462       507       411       473       426       477
maximum mf latency per bank:
dram[0]:        912       740      1107       824       909       863       906       806       890       829       835       723       902       680       864       768
dram[1]:        698       697       874       845       881       783       880       876       780       837       787       674       792       809       695       713
dram[2]:        907       816      1067       997       953       932      1047       970       957       884       956       933       717       703       753       739
dram[3]:        819       785      1098       918       802       926       931       854       871       846       710       719       774       706       764       724
dram[4]:        896       957      1109      1126      1105       993       974      1072      1048       998       799       801       816       751       860       797
dram[5]:        839       841      1071       975       952       941      1056      1050       977       946       987       672       721       712       707       706

Number of Memory Banks Accessed per Memory Operation per Warp (from 0):
0	0	0	0	0	0	0	0	0	0	0	0	0	0	0	0	0	0	0	0	0	0	0	0	0	0	0	0	0	0	0	0	0	0	0	0	0	0	0	0	0	0	0	0	0	0	0	0	0	0	0	0	0	0	0	0	0	0	0	0	0	0	0	0	0	0	0	0	0	0	0	0	0	0	0	0	0	0	0	0	0	0	0	0	0	0	0	0	0	0	0	0	0	0	0	0	
Average # of Memory Banks Accessed per Memory Operation per Warp=-nan

position of mrq chosen
0	0	0	0	0	0	0	0	0	0	0	0	0	0	0	0	

average position of mrq chosen = -nan
Memory Partition 0: 
Cache L2_bank_000:
MSHR contents

Cache L2_bank_001:
MSHR contents

In Dram Latency Queue (total = 0): 
DRAM[0]: 16 bks, busW=8 BL=8 CL=12, tRRD=2 tCCD=6, tRCD=12 tRAS=28 tRP=12 tRC=40
n_cmd=184006 n_nop=176196 n_act=1272 n_pre=1256 n_req=5282 n_rd=2210 n_write=3072 bw_util=0.05741
n_activity=45661 dram_eff=0.2314
bk0: 147a 178180i bk1: 136a 178709i bk2: 124a 178540i bk3: 125a 178387i bk4: 137a 177040i bk5: 133a 176975i bk6: 139a 176462i bk7: 147a 176328i bk8: 156a 176539i bk9: 146a 177222i bk10: 131a 177005i bk11: 156a 175722i bk12: 137a 177174i bk13: 140a 176868i bk14: 123a 178242i bk15: 133a 178038i 
dram_util_bins: 0 0 0 0 0 0 0 0 0 0
dram_eff_bins: 0 0 0 0 0 0 0 0 0 0
mrqq: max=16 avg=0.747307
Memory Partition 1: 
Cache L2_bank_002:
MSHR contents

Cache L2_bank_003:
MSHR contents

In Dram Latency Queue (total = 0): 
DRAM[1]: 16 bks, busW=8 BL=8 CL=12, tRRD=2 tCCD=6, tRCD=12 tRAS=28 tRP=12 tRC=40
n_cmd=184006 n_nop=176053 n_act=1337 n_pre=1321 n_req=5295 n_rd=2212 n_write=3083 bw_util=0.05755
n_activity=46174 dram_eff=0.2293
bk0: 168a 177690i bk1: 133a 179013i bk2: 128a 178474i bk3: 107a 179194i bk4: 150a 176193i bk5: 134a 176863i bk6: 155a 175583i bk7: 130a 176986i bk8: 175a 175969i bk9: 143a 176763i bk10: 135a 177159i bk11: 124a 177456i bk12: 161a 176002i bk13: 132a 177334i bk14: 115a 178537i bk15: 122a 178610i 
dram_util_bins: 0 0 0 0 0 0 0 0 0 0
dram_eff_bins: 0 0 0 0 0 0 0 0 0 0
mrqq: max=16 avg=0.702988
Memory Partition 2: 
Cache L2_bank_004:
MSHR contents

Cache L2_bank_005:
MSHR contents

In Dram Latency Queue (total = 0): 
DRAM[2]: 16 bks, busW=8 BL=8 CL=12, tRRD=2 tCCD=6, tRCD=12 tRAS=28 tRP=12 tRC=40
n_cmd=184006 n_nop=175927 n_act=1320 n_pre=1304 n_req=5455 n_rd=2291 n_write=3164 bw_util=0.05929
n_activity=48268 dram_eff=0.226
bk0: 132a 178483i bk1: 133a 179097i bk2: 128a 178936i bk3: 127a 178570i bk4: 139a 177133i bk5: 135a 176862i bk6: 150a 175839i bk7: 149a 176420i bk8: 162a 176420i bk9: 169a 175488i bk10: 144a 176066i bk11: 145a 176640i bk12: 147a 177078i bk13: 168a 175884i bk14: 136a 177606i bk15: 127a 178195i 
dram_util_bins: 0 0 0 0 0 0 0 0 0 0
dram_eff_bins: 0 0 0 0 0 0 0 0 0 0
mrqq: max=16 avg=0.763165
Memory Partition 3: 
Cache L2_bank_006:
MSHR contents

Cache L2_bank_007:
MSHR contents

In Dram Latency Queue (total = 0): 
DRAM[3]: 16 bks, busW=8 BL=8 CL=12, tRRD=2 tCCD=6, tRCD=12 tRAS=28 tRP=12 tRC=40
n_cmd=184006 n_nop=175919 n_act=1357 n_pre=1341 n_req=5389 n_rd=2251 n_write=3138 bw_util=0.05857
n_activity=47224 dram_eff=0.2282
bk0: 141a 178513i bk1: 144a 178566i bk2: 114a 179173i bk3: 124a 178562i bk4: 130a 177618i bk5: 154a 176079i bk6: 128a 177248i bk7: 158a 176077i bk8: 152a 176602i bk9: 175a 175343i bk10: 124a 177597i bk11: 140a 176956i bk12: 148a 176505i bk13: 164a 175933i bk14: 127a 177960i bk15: 128a 177935i 
dram_util_bins: 0 0 0 0 0 0 0 0 0 0
dram_eff_bins: 0 0 0 0 0 0 0 0 0 0
mrqq: max=16 avg=0.709167
Memory Partition 4: 
Cache L2_bank_008:
MSHR contents

Cache L2_bank_009:
MSHR contents

In Dram Latency Queue (total = 0): 
DRAM[4]: 16 bks, busW=8 BL=8 CL=12, tRRD=2 tCCD=6, tRCD=12 tRAS=28 tRP=12 tRC=40
n_cmd=184006 n_nop=176361 n_act=1222 n_pre=1206 n_req=5217 n_rd=2208 n_write=3009 bw_util=0.0567
n_activity=44798 dram_eff=0.2329
bk0: 147a 178429i bk1: 136a 179261i bk2: 118a 179056i bk3: 133a 178220i bk4: 133a 177119i bk5: 136a 176946i bk6: 139a 176653i bk7: 151a 176335i bk8: 154a 176670i bk9: 148a 177035i bk10: 132a 176879i bk11: 146a 176637i bk12: 145a 176695i bk13: 142a 177162i bk14: 116a 178721i bk15: 132a 178197i 
dram_util_bins: 0 0 0 0 0 0 0 0 0 0
dram_eff_bins: 0 0 0 0 0 0 0 0 0 0
mrqq: max=16 avg=0.7601
Memory Partition 5: 
Cache L2_bank_010:
MSHR contents

Cache L2_bank_011:
MSHR contents

In Dram Latency Queue (total = 0): 
DRAM[5]: 16 bks, busW=8 BL=8 CL=12, tRRD=2 tCCD=6, tRCD=12 tRAS=28 tRP=12 tRC=40
n_cmd=184006 n_nop=175846 n_act=1319 n_pre=1303 n_req=5538 n_rd=2320 n_write=3218 bw_util=0.06019
n_activity=48256 dram_eff=0.2295
bk0: 154a 177990i bk1: 144a 179126i bk2: 142a 178845i bk3: 116a 179244i bk4: 148a 176811i bk5: 134a 176632i bk6: 172a 175475i bk7: 137a 176965i bk8: 156a 176628i bk9: 150a 176801i bk10: 150a 176538i bk11: 130a 177407i bk12: 165a 176277i bk13: 150a 176771i bk14: 141a 177918i bk15: 131a 178089i 
dram_util_bins: 0 0 0 0 0 0 0 0 0 0
dram_eff_bins: 0 0 0 0 0 0 0 0 0 0
mrqq: max=16 avg=0.693673

========= L2 cache stats =========
L2_cache_bank[0]: Access = 6885, Miss = 1094, Miss_rate = 0.159, Pending_hits = 94, Reservation_fails = 927
L2_cache_bank[1]: Access = 7002, Miss = 1116, Miss_rate = 0.159, Pending_hits = 79, Reservation_fails = 417
L2_cache_bank[2]: Access = 6785, Miss = 1187, Miss_rate = 0.175, Pending_hits = 97, Reservation_fails = 845
L2_cache_bank[3]: Access = 6726, Miss = 1025, Miss_rate = 0.152, Pending_hits = 83, Reservation_fails = 392
L2_cache_bank[4]: Access = 6690, Miss = 1138, Miss_rate = 0.170, Pending_hits = 77, Reservation_fails = 498
L2_cache_bank[5]: Access = 6878, Miss = 1153, Miss_rate = 0.168, Pending_hits = 77, Reservation_fails = 468
L2_cache_bank[6]: Access = 6876, Miss = 1064, Miss_rate = 0.155, Pending_hits = 91, Reservation_fails = 629
L2_cache_bank[7]: Access = 6997, Miss = 1187, Miss_rate = 0.170, Pending_hits = 71, Reservation_fails = 331
L2_cache_bank[8]: Access = 6891, Miss = 1084, Miss_rate = 0.157, Pending_hits = 81, Reservation_fails = 509
L2_cache_bank[9]: Access = 6640, Miss = 1124, Miss_rate = 0.169, Pending_hits = 72, Reservation_fails = 285
L2_cache_bank[10]: Access = 6974, Miss = 1228, Miss_rate = 0.176, Pending_hits = 75, Reservation_fails = 407
L2_cache_bank[11]: Access = 6773, Miss = 1092, Miss_rate = 0.161, Pending_hits = 87, Reservation_fails = 333
L2_total_cache_accesses = 82117
L2_total_cache_misses = 13492
L2_total_cache_miss_rate = 0.1643
L2_total_cache_pending_hits = 984
L2_total_cache_reservation_fails = 6041
L2_total_cache_breakdown:
	L2_cache_stats_breakdown[GLOBAL_ACC_R][HIT] = 3693
	L2_cache_stats_breakdown[GLOBAL_ACC_R][HIT_RESERVED] = 21
	L2_cache_stats_breakdown[GLOBAL_ACC_R][MISS] = 157
	L2_cache_stats_breakdown[GLOBAL_ACC_R][RESERVATION_FAIL] = 202
	L2_cache_stats_breakdown[LOCAL_ACC_R][HIT] = 6769
	L2_cache_stats_breakdown[LOCAL_ACC_R][HIT_RESERVED] = 127
	L2_cache_stats_breakdown[LOCAL_ACC_R][MISS] = 461
	L2_cache_stats_breakdown[CONST_ACC_R][HIT] = 24
	L2_cache_stats_breakdown[CONST_ACC_R][HIT_RESERVED] = 4
	L2_cache_stats_breakdown[CONST_ACC_R][MISS] = 2
	L2_cache_stats_breakdown[CONST_ACC_R][RESERVATION_FAIL] = 131
	L2_cache_stats_breakdown[GLOBAL_ACC_W][HIT] = 5476
	L2_cache_stats_breakdown[GLOBAL_ACC_W][HIT_RESERVED] = 668
	L2_cache_stats_breakdown[GLOBAL_ACC_W][MISS] = 2048
	L2_cache_stats_breakdown[GLOBAL_ACC_W][RESERVATION_FAIL] = 91
	L2_cache_stats_breakdown[LOCAL_ACC_W][HIT] = 35008
	L2_cache_stats_breakdown[LOCAL_ACC_W][HIT_RESERVED] = 10
	L2_cache_stats_breakdown[LOCAL_ACC_W][MISS] = 9467
	L2_cache_stats_breakdown[LOCAL_ACC_W][RESERVATION_FAIL] = 352
	L2_cache_stats_breakdown[L1_WRBK_ACC][HIT] = 3672
	L2_cache_stats_breakdown[L1_WRBK_ACC][MISS] = 1304
	L2_cache_stats_breakdown[INST_ACC_R][HIT] = 12999
	L2_cache_stats_breakdown[INST_ACC_R][HIT_RESERVED] = 154
	L2_cache_stats_breakdown[INST_ACC_R][MISS] = 53
	L2_cache_stats_breakdown[INST_ACC_R][RESERVATION_FAIL] = 5265
L2_cache_data_port_util = 0.155
L2_cache_fill_port_util = 0.032

icnt_total_pkts_mem_to_simt=174937
icnt_total_pkts_simt_to_mem=293090
LD_mem_lat_dist  0 0 0 0 0 0 0 0 0 0 0 0 0 0 0 0 0 0 0 0 0 0 0 0 0 0 0
ST_mem_lat_dist  0 0 0 0 0 0 0 0 0 0 0 0 0 0 0 0 0 0 0 0 0 0 0 0 0 0 0
----------------------------Interconnect-DETAILS--------------------------------
Class 0:
Packet latency average = 16.3381
	minimum = 6
	maximum = 435
Network latency average = 12.8995
	minimum = 6
	maximum = 430
Slowest packet = 767
Flit latency average = 11.81
	minimum = 6
	maximum = 426
Slowest flit = 3301
Fragmentation average = 0.0443557
	minimum = 0
	maximum = 327
Injected packet rate average = 0.0423134
	minimum = 0.0366789 (at node 2)
	maximum = 0.0472242 (at node 16)
Accepted packet rate average = 0.0423134
	minimum = 0.0350074 (at node 2)
	maximum = 0.0502299 (at node 16)
Injected flit rate average = 0.12435
	minimum = 0.0995703 (at node 19)
	maximum = 0.154427 (at node 4)
Accepted flit rate average= 0.12435
	minimum = 0.0725471 (at node 0)
	maximum = 0.178488 (at node 15)
Injected packet length average = 2.9388
Accepted packet length average = 2.9388
Total in-flight flits = 0 (0 measured)
====== Overall Traffic Statistics ======
====== Traffic class 0 ======
Packet latency average = 16.3381 (1 samples)
	minimum = 6 (1 samples)
	maximum = 435 (1 samples)
Network latency average = 12.8995 (1 samples)
	minimum = 6 (1 samples)
	maximum = 430 (1 samples)
Flit latency average = 11.81 (1 samples)
	minimum = 6 (1 samples)
	maximum = 426 (1 samples)
Fragmentation average = 0.0443557 (1 samples)
	minimum = 0 (1 samples)
	maximum = 327 (1 samples)
Injected packet rate average = 0.0423134 (1 samples)
	minimum = 0.0366789 (1 samples)
	maximum = 0.0472242 (1 samples)
Accepted packet rate average = 0.0423134 (1 samples)
	minimum = 0.0350074 (1 samples)
	maximum = 0.0502299 (1 samples)
Injected flit rate average = 0.12435 (1 samples)
	minimum = 0.0995703 (1 samples)
	maximum = 0.154427 (1 samples)
Accepted flit rate average = 0.12435 (1 samples)
	minimum = 0.0725471 (1 samples)
	maximum = 0.178488 (1 samples)
Injected packet size average = 2.9388 (1 samples)
Accepted packet size average = 2.9388 (1 samples)
Hops average = 1 (1 samples)
----------------------------END-of-Interconnect-DETAILS-------------------------


gpgpu_simulation_time = 0 days, 0 hrs, 2 min, 7 sec (127 sec)
gpgpu_simulation_rate = 493563 (inst/sec)
gpgpu_simulation_rate = 1097 (cycle/sec)
GPGPU-Sim: synchronize waiting for inactive GPU simulation
GPGPU-Sim API: Stream Manager State
GPGPU-Sim: detected inactive GPU simulation thread

checksum=75ef40cb5b8e
Kernel Time: 126782.695312 
