

        *** GPGPU-Sim Simulator Version 3.2.2  [build 0] ***


GPGPU-Sim PTX: simulation mode 0 (can change with PTX_SIM_MODE_FUNC environment variable:
               1=functional simulation only, 0=detailed performance simulator)
GPGPU-Sim: Configuration options:

-network_mode                           1 # Interconnection network mode
-inter_config_file   config_fermi_islip.icnt # Interconnection network config file
-gpgpu_ptx_use_cuobjdump                    1 # Use cuobjdump to extract ptx and sass from binaries
-gpgpu_experimental_lib_support                    0 # Try to extract code from cuda libraries [Broken because of unknown cudaGetExportTable]
-gpgpu_ptx_convert_to_ptxplus                    0 # Convert SASS (native ISA) to ptxplus and run ptxplus
-gpgpu_ptx_force_max_capability                   20 # Force maximum compute capability
-gpgpu_ptx_inst_debug_to_file                    0 # Dump executed instructions' debug information to file
-gpgpu_ptx_inst_debug_file       inst_debug.txt # Executed instructions' debug output file
-gpgpu_ptx_inst_debug_thread_uid                    1 # Thread UID for executed instructions' debug output
-gpgpu_simd_model                       1 # 1 = post-dominator
-gpgpu_shader_core_pipeline              1536:32 # shader core pipeline config, i.e., {<nthread>:<warpsize>}
-gpgpu_tex_cache:l1  4:128:24,L:R:m:N:L,F:128:4,128:2 # per-shader L1 texture cache  (READ-ONLY) config  {<nsets>:<bsize>:<assoc>,<rep>:<wr>:<alloc>:<wr_alloc>,<mshr>:<N>:<merge>,<mq>:<rf>}
-gpgpu_const_cache:l1 64:64:2,L:R:f:N:L,A:2:32,4 # per-shader L1 constant memory cache  (READ-ONLY) config  {<nsets>:<bsize>:<assoc>,<rep>:<wr>:<alloc>:<wr_alloc>,<mshr>:<N>:<merge>,<mq>} 
-gpgpu_cache:il1     4:128:4,L:R:f:N:L,A:2:32,4 # shader L1 instruction cache config  {<nsets>:<bsize>:<assoc>,<rep>:<wr>:<alloc>:<wr_alloc>,<mshr>:<N>:<merge>,<mq>} 
-gpgpu_cache:dl1     32:128:2,L:L:m:N:H,A:32:8,8 # per-shader L1 data cache config  {<nsets>:<bsize>:<assoc>,<rep>:<wr>:<alloc>:<wr_alloc>,<mshr>:<N>:<merge>,<mq> | none}
-gpgpu_cache:dl1PrefL1                 none # per-shader L1 data cache config  {<nsets>:<bsize>:<assoc>,<rep>:<wr>:<alloc>:<wr_alloc>,<mshr>:<N>:<merge>,<mq> | none}
-gpgpu_cache:dl1PreShared                 none # per-shader L1 data cache config  {<nsets>:<bsize>:<assoc>,<rep>:<wr>:<alloc>:<wr_alloc>,<mshr>:<N>:<merge>,<mq> | none}
-gmem_skip_L1D                          0 # global memory access skip L1D cache (implements -Xptxas -dlcm=cg, default=no skip)
-gpgpu_perfect_mem                      0 # enable perfect memory mode (no cache miss)
-n_regfile_gating_group                    4 # group of lanes that should be read/written together)
-gpgpu_clock_gated_reg_file                    0 # enable clock gated reg file for power calculations
-gpgpu_clock_gated_lanes                    0 # enable clock gated lanes for power calculations
-gpgpu_shader_registers                32768 # Number of registers per shader core. Limits number of concurrent CTAs. (default 8192)
-gpgpu_shader_cta                       8 # Maximum number of concurrent CTAs in shader (default 8)
-gpgpu_num_cta_barriers                   16 # Maximum number of named barriers per CTA (default 16)
-gpgpu_n_clusters                      15 # number of processing clusters
-gpgpu_n_cores_per_cluster                    1 # number of simd cores per cluster
-gpgpu_n_cluster_ejection_buffer_size                    8 # number of packets in ejection buffer
-gpgpu_n_ldst_response_buffer_size                    2 # number of response packets in ld/st unit ejection buffer
-gpgpu_shmem_size                   16384 # Size of shared memory per shader core (default 16kB)
-gpgpu_shmem_size                   49152 # Size of shared memory per shader core (default 16kB)
-gpgpu_shmem_size_PrefL1                16384 # Size of shared memory per shader core (default 16kB)
-gpgpu_shmem_size_PrefShared                16384 # Size of shared memory per shader core (default 16kB)
-gpgpu_shmem_num_banks                   32 # Number of banks in the shared memory in each shader core (default 16)
-gpgpu_shmem_limited_broadcast                    0 # Limit shared memory to do one broadcast per cycle (default on)
-gpgpu_shmem_warp_parts                    1 # Number of portions a warp is divided into for shared memory bank conflict check 
-gpgpu_warpdistro_shader                   -1 # Specify which shader core to collect the warp size distribution from
-gpgpu_warp_issue_shader                    0 # Specify which shader core to collect the warp issue distribution from
-gpgpu_local_mem_map                    1 # Mapping from local memory space address to simulated GPU physical address space (default = enabled)
-gpgpu_num_reg_banks                   16 # Number of register banks (default = 8)
-gpgpu_reg_bank_use_warp_id                    0 # Use warp ID in mapping registers to banks (default = off)
-gpgpu_operand_collector_num_units_sp                    6 # number of collector units (default = 4)
-gpgpu_operand_collector_num_units_sfu                    8 # number of collector units (default = 4)
-gpgpu_operand_collector_num_units_mem                    2 # number of collector units (default = 2)
-gpgpu_operand_collector_num_units_gen                    0 # number of collector units (default = 0)
-gpgpu_operand_collector_num_in_ports_sp                    2 # number of collector unit in ports (default = 1)
-gpgpu_operand_collector_num_in_ports_sfu                    1 # number of collector unit in ports (default = 1)
-gpgpu_operand_collector_num_in_ports_mem                    1 # number of collector unit in ports (default = 1)
-gpgpu_operand_collector_num_in_ports_gen                    0 # number of collector unit in ports (default = 0)
-gpgpu_operand_collector_num_out_ports_sp                    2 # number of collector unit in ports (default = 1)
-gpgpu_operand_collector_num_out_ports_sfu                    1 # number of collector unit in ports (default = 1)
-gpgpu_operand_collector_num_out_ports_mem                    1 # number of collector unit in ports (default = 1)
-gpgpu_operand_collector_num_out_ports_gen                    0 # number of collector unit in ports (default = 0)
-gpgpu_coalesce_arch                   13 # Coalescing arch (default = 13, anything else is off for now)
-gpgpu_num_sched_per_core                    2 # Number of warp schedulers per core
-gpgpu_max_insn_issue_per_warp                    1 # Max number of instructions that can be issued per warp in one cycle by scheduler
-gpgpu_simt_core_sim_order                    1 # Select the simulation order of cores in a cluster (0=Fix, 1=Round-Robin)
-gpgpu_pipeline_widths        2,1,1,2,1,1,2 # Pipeline widths ID_OC_SP,ID_OC_SFU,ID_OC_MEM,OC_EX_SP,OC_EX_SFU,OC_EX_MEM,EX_WB
-gpgpu_num_sp_units                     2 # Number of SP units (default=1)
-gpgpu_num_sfu_units                    1 # Number of SF units (default=1)
-gpgpu_num_mem_units                    1 # Number if ldst units (default=1) WARNING: not hooked up to anything
-gpgpu_scheduler                      gto # Scheduler configuration: < lrr | gto | two_level_active > If two_level_active:<num_active_warps>:<inner_prioritization>:<outer_prioritization>For complete list of prioritization values see shader.h enum scheduler_prioritization_typeDefault: gto
-gpgpu_dram_scheduler                    1 # 0 = fifo, 1 = FR-FCFS (defaul)
-gpgpu_dram_partition_queues              8:8:8:8 # i2$:$2d:d2$:$2i
-l2_ideal                               0 # Use a ideal L2 cache that always hit
-gpgpu_cache:dl2     64:128:8,L:B:m:W:L,A:32:4,4:0,32 # unified banked L2 data cache config  {<nsets>:<bsize>:<assoc>,<rep>:<wr>:<alloc>:<wr_alloc>,<mshr>:<N>:<merge>,<mq>}
-gpgpu_cache:dl2_texture_only                    0 # L2 cache used for texture only
-gpgpu_n_mem                            6 # number of memory modules (e.g. memory controllers) in gpu
-gpgpu_n_sub_partition_per_mchannel                    2 # number of memory subpartition in each memory module
-gpgpu_n_mem_per_ctrlr                    2 # number of memory chips per memory controller
-gpgpu_memlatency_stat                   14 # track and display latency statistics 0x2 enables MC, 0x4 enables queue logs
-gpgpu_frfcfs_dram_sched_queue_size                   16 # 0 = unlimited (default); # entries per chip
-gpgpu_dram_return_queue_size                  116 # 0 = unlimited (default); # entries per chip
-gpgpu_dram_buswidth                    4 # default = 4 bytes (8 bytes per cycle at DDR)
-gpgpu_dram_burst_length                    8 # Burst length of each DRAM request (default = 4 data bus cycle)
-dram_data_command_freq_ratio                    4 # Frequency ratio between DRAM data bus and command bus (default = 2 times, i.e. DDR)
-gpgpu_dram_timing_opt nbk=16:CCD=2:RRD=6:RCD=12:RAS=28:RP=12:RC=40: CL=12:WL=4:CDLR=5:WR=12:nbkgrp=4:CCDL=3:RTPL=2 # DRAM timing parameters = {nbk:tCCD:tRRD:tRCD:tRAS:tRP:tRC:CL:WL:tCDLR:tWR:nbkgrp:tCCDL:tRTPL}
-rop_latency                          120 # ROP queue latency (default 85)
-dram_latency                         100 # DRAM latency (default 30)
-gpgpu_mem_addr_mapping dramid@8;00000000.00000000.00000000.00000000.0000RRRR.RRRRRRRR.BBBCCCCB.CCSSSSSS # mapping memory address to dram model {dramid@<start bit>;<memory address map>}
-gpgpu_mem_addr_test                    0 # run sweep test to check address mapping for aliased address
-gpgpu_mem_address_mask                    1 # 0 = old addressing mask, 1 = new addressing mask, 2 = new add. mask + flipped bank sel and chip sel bits
-gpuwattch_xml_file  gpuwattch_gtx480.xml # GPUWattch XML file
-power_simulation_enabled                    1 # Turn on power simulator (1=On, 0=Off)
-power_per_cycle_dump                    0 # Dump detailed power output each cycle
-power_trace_enabled                    0 # produce a file for the power trace (1=On, 0=Off)
-power_trace_zlevel                     6 # Compression level of the power trace output log (0=no comp, 9=highest)
-steady_power_levels_enabled                    0 # produce a file for the steady power levels (1=On, 0=Off)
-steady_state_definition                  8:4 # allowed deviation:number of samples
-gpgpu_max_cycle                        0 # terminates gpu simulation early (0 = no limit)
-gpgpu_max_insn                         0 # terminates gpu simulation early (0 = no limit)
-gpgpu_max_cta                          0 # terminates gpu simulation early (0 = no limit)
-gpgpu_runtime_stat                   500 # display runtime statistics such as dram utilization {<freq>:<flag>}
-liveness_message_freq                    1 # Minimum number of seconds between simulation liveness messages (0 = always print)
-gpgpu_flush_l1_cache                    0 # Flush L1 cache at the end of each kernel call
-gpgpu_flush_l2_cache                    0 # Flush L2 cache at the end of each kernel call
-gpgpu_deadlock_detect                    1 # Stop the simulation at deadlock (1=on (default), 0=off)
-gpgpu_ptx_instruction_classification                    0 # if enabled will classify ptx instruction types per kernel (Max 255 kernels now)
-gpgpu_ptx_sim_mode                     0 # Select between Performance (default) or Functional simulation (1)
-gpgpu_clock_domains 700.0:700.0:700.0:924.0 # Clock Domain Frequencies in MhZ {<Core Clock>:<ICNT Clock>:<L2 Clock>:<DRAM Clock>}
-gpgpu_max_concurrent_kernel                    8 # maximum kernels that can run concurrently on GPU
-gpgpu_cflog_interval                    0 # Interval between each snapshot in control flow logger
-visualizer_enabled                     0 # Turn on visualizer output (1=On, 0=Off)
-visualizer_outputfile                 NULL # Specifies the output log file for visualizer
-visualizer_zlevel                      6 # Compression level of the visualizer output log (0=no comp, 9=highest)
-trace_enabled                          0 # Turn on traces
-trace_components                    none # comma seperated list of traces to enable. Complete list found in trace_streams.tup. Default none
-trace_sampling_core                    0 # The core which is printed using CORE_DPRINTF. Default 0
-trace_sampling_memory_partition                   -1 # The memory partition which is printed using MEMPART_DPRINTF. Default -1 (i.e. all)
-enable_ptx_file_line_stats                    1 # Turn on PTX source line statistic profiling. (1 = On)
-ptx_line_stats_filename gpgpu_inst_stats.txt # Output file for PTX source line statistics.
-save_embedded_ptx                      0 # saves ptx files embedded in binary as <n>.ptx
-keep                                   0 # keep intermediate files created by GPGPU-Sim when interfacing with external programs
-gpgpu_ptx_save_converted_ptxplus                    0 # Saved converted ptxplus to a file
-ptx_opcode_latency_int         4,13,4,5,145 # Opcode latencies for integers <ADD,MAX,MUL,MAD,DIV>Default 1,1,19,25,145
-ptx_opcode_latency_fp          4,13,4,5,39 # Opcode latencies for single precision floating points <ADD,MAX,MUL,MAD,DIV>Default 1,1,1,1,30
-ptx_opcode_latency_dp         8,19,8,8,330 # Opcode latencies for double precision floating points <ADD,MAX,MUL,MAD,DIV>Default 8,8,8,8,335
-ptx_opcode_initiation_int            1,2,2,1,8 # Opcode initiation intervals for integers <ADD,MAX,MUL,MAD,DIV>Default 1,1,4,4,32
-ptx_opcode_initiation_fp            1,2,1,1,4 # Opcode initiation intervals for single precision floating points <ADD,MAX,MUL,MAD,DIV>Default 1,1,1,1,5
-ptx_opcode_initiation_dp         8,16,8,8,130 # Opcode initiation intervals for double precision floating points <ADD,MAX,MUL,MAD,DIV>Default 8,8,8,8,130
DRAM Timing Options:
nbk                                    16 # number of banks
CCD                                     2 # column to column delay
RRD                                     6 # minimal delay between activation of rows in different banks
RCD                                    12 # row to column delay
RAS                                    28 # time needed to activate row
RP                                     12 # time needed to precharge (deactivate) row
RC                                     40 # row cycle time
CDLR                                    5 # switching from write to read (changes tWTR)
WR                                     12 # last data-in to row precharge
CL                                     12 # CAS latency
WL                                      4 # Write latency
nbkgrp                                  4 # number of bank groups
CCDL                                    3 # column to column delay between accesses to different bank groups
RTPL                                    2 # read to precharge delay between accesses to different bank groups
Total number of memory sub partition = 12
addr_dec_mask[CHIP]  = 0000000000000000 	high:64 low:0
addr_dec_mask[BK]    = 000000000000e100 	high:16 low:8
addr_dec_mask[ROW]   = 000000000fff0000 	high:28 low:16
addr_dec_mask[COL]   = 0000000000001eff 	high:13 low:0
addr_dec_mask[BURST] = 000000000000003f 	high:6 low:0
sub_partition_id_mask = 0000000000000100
GPGPU-Sim uArch: clock freqs: 700000000.000000:700000000.000000:700000000.000000:924000000.000000
GPGPU-Sim uArch: clock periods: 0.00000000142857142857:0.00000000142857142857:0.00000000142857142857:0.00000000108225108225
*** Initializing Memory Statistics ***
GPGPU-Sim uArch: interconnect node map (shaderID+MemID to icntID)
GPGPU-Sim uArch: Memory nodes ID start from index: 15
GPGPU-Sim uArch:    0   1   2   3   4
GPGPU-Sim uArch:    5   6   7   8   9
GPGPU-Sim uArch:   10  11  12  13  14
GPGPU-Sim uArch:   15  16  17  18  19
GPGPU-Sim uArch:   20  21  22  23  24
GPGPU-Sim uArch:   25  26
GPGPU-Sim uArch: interconnect node reverse map (icntID to shaderID+MemID)
GPGPU-Sim uArch: Memory nodes start from ID: 15
GPGPU-Sim uArch:    0   1   2   3   4
GPGPU-Sim uArch:    5   6   7   8   9
GPGPU-Sim uArch:   10  11  12  13  14
GPGPU-Sim uArch:   15  16  17  18  19
GPGPU-Sim uArch:   20  21  22  23  24
GPGPU-Sim uArch:   25  26
42f7b457b4f8bc5f243a2d9180567621  /home/scratch/adwait/applications/benchmarks/CUDA/BlackScholes/gpgpu_ptx_sim__BlackScholes
GPGPU-Sim uArch: performance model initialization complete.
GPGPU-Sim PTX: __cudaRegisterFatBinary, fat_cubin_handle = 1, filename=BlackScholes.cu
self exe links to: /home/scratch/adwait/applications/benchmarks/CUDA/BlackScholes/gpgpu_ptx_sim__BlackScholes
Running md5sum using "md5sum /home/scratch/adwait/applications/benchmarks/CUDA/BlackScholes/gpgpu_ptx_sim__BlackScholes "
Running cuobjdump using "$CUDA_INSTALL_PATH/bin/cuobjdump -ptx -elf -sass /home/scratch/adwait/applications/benchmarks/CUDA/BlackScholes/gpgpu_ptx_sim__BlackScholes > _cuobjdump_complete_output_gc8Bqu"
Parsing file _cuobjdump_complete_output_gc8Bqu
######### cuobjdump parser ########
## Adding new section ELF
Adding arch: sm_20
Adding identifier: BlackScholes.cu
## Adding new section PTX
Adding ptx filename: _cuobjdump_1.ptx
Adding arch: sm_20
Adding identifier: BlackScholes.cu
Done parsing!!!
GPGPU-Sim PTX: __cudaRegisterFunction _Z15BlackScholesGPUPfS_S_S_S_ffi : hostFun 0x0x4050ed, fat_cubin_handle = 1
GPGPU-Sim PTX: instruction assembly for function '_Z15BlackScholesGPUPfS_S_S_S_ffi'...   done.
GPGPU-Sim PTX: finding reconvergence points for '_Z15BlackScholesGPUPfS_S_S_S_ffi'...
GPGPU-Sim PTX: Finding dominators for '_Z15BlackScholesGPUPfS_S_S_S_ffi'...
GPGPU-Sim PTX: Finding immediate dominators for '_Z15BlackScholesGPUPfS_S_S_S_ffi'...
GPGPU-Sim PTX: Finding postdominators for '_Z15BlackScholesGPUPfS_S_S_S_ffi'...
GPGPU-Sim PTX: Finding immediate postdominators for '_Z15BlackScholesGPUPfS_S_S_S_ffi'...
GPGPU-Sim PTX: pre-decoding instructions for '_Z15BlackScholesGPUPfS_S_S_S_ffi'...
GPGPU-Sim PTX: reconvergence points for _Z15BlackScholesGPUPfS_S_S_S_ffi...
GPGPU-Sim PTX:  1 (potential) branch divergence @  PC=0x040 (_1.ptx:76) @%p1 bra $Lt_0_2818;
GPGPU-Sim PTX:    immediate post dominator      @  PC=0x3f8 (_1.ptx:200) exit;
GPGPU-Sim PTX:  2 (potential) branch divergence @  PC=0x3f0 (_1.ptx:197) @%p4 bra $Lt_0_3330;
GPGPU-Sim PTX:    immediate post dominator      @  PC=0x3f8 (_1.ptx:200) exit;
GPGPU-Sim PTX: ... end of reconvergence points for _Z15BlackScholesGPUPfS_S_S_S_ffi
GPGPU-Sim PTX: ... done pre-decoding instructions for '_Z15BlackScholesGPUPfS_S_S_S_ffi'.
GPGPU-Sim PTX: finished parsing EMBEDDED .ptx file _1.ptx
Adding _cuobjdump_1.ptx with cubin handle 1
GPGPU-Sim PTX: extracting embedded .ptx to temporary file "_ptx_rWyTYY"
Running: cat _ptx_rWyTYY | sed 's/.version 1.5/.version 1.4/' | sed 's/, texmode_independent//' | sed 's/\(\.extern \.const\[1\] .b8 \w\+\)\[\]/\1\[1\]/' | sed 's/const\[.\]/const\[0\]/g' > _ptx2_Czh4Ht
GPGPU-Sim PTX: generating ptxinfo using "$CUDA_INSTALL_PATH/bin/ptxas --gpu-name=sm_20 -v _ptx2_Czh4Ht --output-file  /dev/null 2> _ptx_rWyTYYinfo"
GPGPU-Sim PTX: Kernel '_Z15BlackScholesGPUPfS_S_S_S_ffi' : regs=31, lmem=0, smem=0, cmem=128
GPGPU-Sim PTX: removing ptxinfo using "rm -f _ptx_rWyTYY _ptx2_Czh4Ht _ptx_rWyTYYinfo"
GPGPU-Sim PTX: loading globals with explicit initializers... 
GPGPU-Sim PTX: finished loading globals (0 bytes total).
GPGPU-Sim PTX: loading constants with explicit initializers...  done.
Initializing data...
...allocating CPU memory for options.
...allocating GPU memory for options.
...generating input data in CPU mem.
...copying input data to GPU mem.
Data init done.
Executing Black-Scholes GPU kernel (1 iterations)...
GPGPU-Sim: synchronize waiting for inactive GPU simulation
GPGPU-Sim API: Stream Manager State
GPGPU-Sim: detected inactive GPU simulation thread

GPGPU-Sim PTX: cudaLaunch for 0x0x4050ed (mode=performance simulation) on stream 0
GPGPU-Sim PTX: pushing kernel '_Z15BlackScholesGPUPfS_S_S_S_ffi' to stream 0, gridDim= (480,1,1) blockDim = (128,1,1) 
kernel '_Z15BlackScholesGPUPfS_S_S_S_ffi' transfer to GPU hardware scheduler
GPGPU-Sim uArch: Shader 1 bind to kernel 1 '_Z15BlackScholesGPUPfS_S_S_S_ffi'
GPGPU-Sim uArch: CTA/core = 8, limited by: regs cta_limit
GPGPU-Sim uArch: core:  1, cta: 0 initialized @(1,0)
GPGPU-Sim uArch: Shader 2 bind to kernel 1 '_Z15BlackScholesGPUPfS_S_S_S_ffi'
GPGPU-Sim uArch: core:  2, cta: 0 initialized @(1,0)
GPGPU-Sim uArch: Shader 3 bind to kernel 1 '_Z15BlackScholesGPUPfS_S_S_S_ffi'
GPGPU-Sim uArch: core:  3, cta: 0 initialized @(1,0)
GPGPU-Sim uArch: Shader 4 bind to kernel 1 '_Z15BlackScholesGPUPfS_S_S_S_ffi'
GPGPU-Sim uArch: core:  4, cta: 0 initialized @(1,0)
GPGPU-Sim uArch: Shader 5 bind to kernel 1 '_Z15BlackScholesGPUPfS_S_S_S_ffi'
GPGPU-Sim uArch: core:  5, cta: 0 initialized @(1,0)
GPGPU-Sim uArch: Shader 6 bind to kernel 1 '_Z15BlackScholesGPUPfS_S_S_S_ffi'
GPGPU-Sim uArch: core:  6, cta: 0 initialized @(1,0)
GPGPU-Sim uArch: Shader 7 bind to kernel 1 '_Z15BlackScholesGPUPfS_S_S_S_ffi'
GPGPU-Sim uArch: core:  7, cta: 0 initialized @(1,0)
GPGPU-Sim uArch: Shader 8 bind to kernel 1 '_Z15BlackScholesGPUPfS_S_S_S_ffi'
GPGPU-Sim uArch: core:  8, cta: 0 initialized @(1,0)
GPGPU-Sim uArch: Shader 9 bind to kernel 1 '_Z15BlackScholesGPUPfS_S_S_S_ffi'
GPGPU-Sim uArch: core:  9, cta: 0 initialized @(1,0)
GPGPU-Sim uArch: Shader 10 bind to kernel 1 '_Z15BlackScholesGPUPfS_S_S_S_ffi'
GPGPU-Sim uArch: core: 10, cta: 0 initialized @(1,0)
GPGPU-Sim uArch: Shader 11 bind to kernel 1 '_Z15BlackScholesGPUPfS_S_S_S_ffi'
GPGPU-Sim uArch: core: 11, cta: 0 initialized @(1,0)
GPGPU-Sim uArch: Shader 12 bind to kernel 1 '_Z15BlackScholesGPUPfS_S_S_S_ffi'
GPGPU-Sim uArch: core: 12, cta: 0 initialized @(1,0)
GPGPU-Sim uArch: Shader 13 bind to kernel 1 '_Z15BlackScholesGPUPfS_S_S_S_ffi'
GPGPU-Sim uArch: core: 13, cta: 0 initialized @(1,0)
GPGPU-Sim uArch: Shader 14 bind to kernel 1 '_Z15BlackScholesGPUPfS_S_S_S_ffi'
GPGPU-Sim uArch: core: 14, cta: 0 initialized @(1,0)
GPGPU-Sim uArch: Shader 0 bind to kernel 1 '_Z15BlackScholesGPUPfS_S_S_S_ffi'
GPGPU-Sim uArch: core:  0, cta: 0 initialized @(1,0)
GPGPU-Sim uArch: core:  1, cta: 1 initialized @(2,0)
GPGPU-Sim uArch: core:  2, cta: 1 initialized @(2,0)
GPGPU-Sim uArch: core:  3, cta: 1 initialized @(2,0)
GPGPU-Sim uArch: core:  4, cta: 1 initialized @(2,0)
GPGPU-Sim uArch: core:  5, cta: 1 initialized @(2,0)
GPGPU-Sim uArch: core:  6, cta: 1 initialized @(2,0)
GPGPU-Sim uArch: core:  7, cta: 1 initialized @(2,0)
GPGPU-Sim uArch: core:  8, cta: 1 initialized @(2,0)
GPGPU-Sim uArch: core:  9, cta: 1 initialized @(2,0)
GPGPU-Sim uArch: core: 10, cta: 1 initialized @(2,0)
GPGPU-Sim uArch: core: 11, cta: 1 initialized @(2,0)
GPGPU-Sim uArch: core: 12, cta: 1 initialized @(2,0)
GPGPU-Sim uArch: core: 13, cta: 1 initialized @(2,0)
GPGPU-Sim uArch: core: 14, cta: 1 initialized @(2,0)
GPGPU-Sim uArch: core:  0, cta: 1 initialized @(2,0)
GPGPU-Sim uArch: core:  1, cta: 2 initialized @(3,0)
GPGPU-Sim uArch: core:  2, cta: 2 initialized @(3,0)
GPGPU-Sim uArch: core:  3, cta: 2 initialized @(3,0)
GPGPU-Sim uArch: core:  4, cta: 2 initialized @(3,0)
GPGPU-Sim uArch: core:  5, cta: 2 initialized @(3,0)
GPGPU-Sim uArch: core:  6, cta: 2 initialized @(3,0)
GPGPU-Sim uArch: core:  7, cta: 2 initialized @(3,0)
GPGPU-Sim uArch: core:  8, cta: 2 initialized @(3,0)
GPGPU-Sim uArch: core:  9, cta: 2 initialized @(3,0)
GPGPU-Sim uArch: core: 10, cta: 2 initialized @(3,0)
GPGPU-Sim uArch: core: 11, cta: 2 initialized @(3,0)
GPGPU-Sim uArch: core: 12, cta: 2 initialized @(3,0)
GPGPU-Sim uArch: core: 13, cta: 2 initialized @(3,0)
GPGPU-Sim uArch: core: 14, cta: 2 initialized @(3,0)
GPGPU-Sim uArch: core:  0, cta: 2 initialized @(3,0)
GPGPU-Sim uArch: core:  1, cta: 3 initialized @(4,0)
GPGPU-Sim uArch: core:  2, cta: 3 initialized @(4,0)
GPGPU-Sim uArch: core:  3, cta: 3 initialized @(4,0)
GPGPU-Sim uArch: core:  4, cta: 3 initialized @(4,0)
GPGPU-Sim uArch: core:  5, cta: 3 initialized @(4,0)
GPGPU-Sim uArch: core:  6, cta: 3 initialized @(4,0)
GPGPU-Sim uArch: core:  7, cta: 3 initialized @(4,0)
GPGPU-Sim uArch: core:  8, cta: 3 initialized @(4,0)
GPGPU-Sim uArch: core:  9, cta: 3 initialized @(4,0)
GPGPU-Sim uArch: core: 10, cta: 3 initialized @(4,0)
GPGPU-Sim uArch: core: 11, cta: 3 initialized @(4,0)
GPGPU-Sim uArch: core: 12, cta: 3 initialized @(4,0)
GPGPU-Sim uArch: core: 13, cta: 3 initialized @(4,0)
GPGPU-Sim uArch: core: 14, cta: 3 initialized @(4,0)
GPGPU-Sim uArch: core:  0, cta: 3 initialized @(4,0)
GPGPU-Sim uArch: core:  1, cta: 4 initialized @(5,0)
GPGPU-Sim uArch: core:  2, cta: 4 initialized @(5,0)
GPGPU-Sim uArch: core:  3, cta: 4 initialized @(5,0)
GPGPU-Sim uArch: core:  4, cta: 4 initialized @(5,0)
GPGPU-Sim uArch: core:  5, cta: 4 initialized @(5,0)
GPGPU-Sim uArch: core:  6, cta: 4 initialized @(5,0)
GPGPU-Sim uArch: core:  7, cta: 4 initialized @(5,0)
GPGPU-Sim uArch: core:  8, cta: 4 initialized @(5,0)
GPGPU-Sim uArch: core:  9, cta: 4 initialized @(5,0)
GPGPU-Sim uArch: core: 10, cta: 4 initialized @(5,0)
GPGPU-Sim uArch: core: 11, cta: 4 initialized @(5,0)
GPGPU-Sim uArch: core: 12, cta: 4 initialized @(5,0)
GPGPU-Sim uArch: core: 13, cta: 4 initialized @(5,0)
GPGPU-Sim uArch: core: 14, cta: 4 initialized @(5,0)
GPGPU-Sim uArch: core:  0, cta: 4 initialized @(5,0)
GPGPU-Sim uArch: core:  1, cta: 5 initialized @(6,0)
GPGPU-Sim uArch: core:  2, cta: 5 initialized @(6,0)
GPGPU-Sim uArch: core:  3, cta: 5 initialized @(6,0)
GPGPU-Sim uArch: core:  4, cta: 5 initialized @(6,0)
GPGPU-Sim uArch: core:  5, cta: 5 initialized @(6,0)
GPGPU-Sim uArch: core:  6, cta: 5 initialized @(6,0)
GPGPU-Sim uArch: core:  7, cta: 5 initialized @(6,0)
GPGPU-Sim uArch: core:  8, cta: 5 initialized @(6,0)
GPGPU-Sim uArch: core:  9, cta: 5 initialized @(6,0)
GPGPU-Sim uArch: core: 10, cta: 5 initialized @(6,0)
GPGPU-Sim uArch: core: 11, cta: 5 initialized @(6,0)
GPGPU-Sim uArch: core: 12, cta: 5 initialized @(6,0)
GPGPU-Sim uArch: core: 13, cta: 5 initialized @(6,0)
GPGPU-Sim uArch: core: 14, cta: 5 initialized @(6,0)
GPGPU-Sim uArch: core:  0, cta: 5 initialized @(6,0)
GPGPU-Sim uArch: core:  1, cta: 6 initialized @(7,0)
GPGPU-Sim uArch: core:  2, cta: 6 initialized @(7,0)
GPGPU-Sim uArch: core:  3, cta: 6 initialized @(7,0)
GPGPU-Sim uArch: core:  4, cta: 6 initialized @(7,0)
GPGPU-Sim uArch: core:  5, cta: 6 initialized @(7,0)
GPGPU-Sim uArch: core:  6, cta: 6 initialized @(7,0)
GPGPU-Sim uArch: core:  7, cta: 6 initialized @(7,0)
GPGPU-Sim uArch: core:  8, cta: 6 initialized @(7,0)
GPGPU-Sim uArch: core:  9, cta: 6 initialized @(7,0)
GPGPU-Sim uArch: core: 10, cta: 6 initialized @(7,0)
GPGPU-Sim uArch: core: 11, cta: 6 initialized @(7,0)
GPGPU-Sim uArch: core: 12, cta: 6 initialized @(7,0)
GPGPU-Sim uArch: core: 13, cta: 6 initialized @(7,0)
GPGPU-Sim uArch: core: 14, cta: 6 initialized @(7,0)
GPGPU-Sim uArch: core:  0, cta: 6 initialized @(7,0)
GPGPU-Sim uArch: core:  1, cta: 7 initialized @(8,0)
GPGPU-Sim uArch: core:  2, cta: 7 initialized @(8,0)
GPGPU-Sim uArch: core:  3, cta: 7 initialized @(8,0)
GPGPU-Sim uArch: core:  4, cta: 7 initialized @(8,0)
GPGPU-Sim uArch: core:  5, cta: 7 initialized @(8,0)
GPGPU-Sim uArch: core:  6, cta: 7 initialized @(8,0)
GPGPU-Sim uArch: core:  7, cta: 7 initialized @(8,0)
GPGPU-Sim uArch: core:  8, cta: 7 initialized @(8,0)
GPGPU-Sim uArch: core:  9, cta: 7 initialized @(8,0)
GPGPU-Sim uArch: core: 10, cta: 7 initialized @(8,0)
GPGPU-Sim uArch: core: 11, cta: 7 initialized @(8,0)
GPGPU-Sim uArch: core: 12, cta: 7 initialized @(8,0)
GPGPU-Sim uArch: core: 13, cta: 7 initialized @(8,0)
GPGPU-Sim uArch: core: 14, cta: 7 initialized @(8,0)
GPGPU-Sim uArch: core:  0, cta: 7 initialized @(8,0)
GPGPU-Sim PTX: 100000 instructions simulated : ctaid=(111,0,0) tid=(63,0,0)
GPGPU-Sim uArch: cycles simulated: 500  inst.: 92160 (ipc=184.3) sim_rate=30720 (inst/sec) elapsed = 0:0:00:03 / Tue Apr 16 16:48:49 2019
GPGPU-Sim PTX: 200000 instructions simulated : ctaid=(42,0,0) tid=(127,0,0)
GPGPU-Sim PTX: 300000 instructions simulated : ctaid=(52,0,0) tid=(95,0,0)
GPGPU-Sim PTX: 400000 instructions simulated : ctaid=(103,0,0) tid=(31,0,0)
GPGPU-Sim uArch: cycles simulated: 1500  inst.: 428992 (ipc=286.0) sim_rate=107248 (inst/sec) elapsed = 0:0:00:04 / Tue Apr 16 16:48:50 2019
GPGPU-Sim PTX: 500000 instructions simulated : ctaid=(2,0,0) tid=(31,0,0)
GPGPU-Sim PTX: 600000 instructions simulated : ctaid=(4,0,0) tid=(95,0,0)
GPGPU-Sim uArch: cycles simulated: 2500  inst.: 656192 (ipc=262.5) sim_rate=131238 (inst/sec) elapsed = 0:0:00:05 / Tue Apr 16 16:48:51 2019
GPGPU-Sim PTX: 700000 instructions simulated : ctaid=(46,0,0) tid=(95,0,0)
GPGPU-Sim PTX: 800000 instructions simulated : ctaid=(63,0,0) tid=(127,0,0)
GPGPU-Sim PTX: 900000 instructions simulated : ctaid=(29,0,0) tid=(63,0,0)
GPGPU-Sim uArch: cycles simulated: 3000  inst.: 947840 (ipc=315.9) sim_rate=157973 (inst/sec) elapsed = 0:0:00:06 / Tue Apr 16 16:48:52 2019
GPGPU-Sim PTX: 1000000 instructions simulated : ctaid=(54,0,0) tid=(31,0,0)
GPGPU-Sim PTX: 1100000 instructions simulated : ctaid=(23,0,0) tid=(63,0,0)
GPGPU-Sim PTX: 1200000 instructions simulated : ctaid=(71,0,0) tid=(63,0,0)
GPGPU-Sim uArch: cycles simulated: 3500  inst.: 1204128 (ipc=344.0) sim_rate=172018 (inst/sec) elapsed = 0:0:00:07 / Tue Apr 16 16:48:53 2019
GPGPU-Sim PTX: 1300000 instructions simulated : ctaid=(16,0,0) tid=(63,0,0)
GPGPU-Sim PTX: 1400000 instructions simulated : ctaid=(99,0,0) tid=(31,0,0)
GPGPU-Sim PTX: 1500000 instructions simulated : ctaid=(49,0,0) tid=(31,0,0)
GPGPU-Sim PTX: 1600000 instructions simulated : ctaid=(40,0,0) tid=(63,0,0)
GPGPU-Sim uArch: cycles simulated: 4000  inst.: 1605696 (ipc=401.4) sim_rate=200712 (inst/sec) elapsed = 0:0:00:08 / Tue Apr 16 16:48:54 2019
GPGPU-Sim PTX: 1700000 instructions simulated : ctaid=(89,0,0) tid=(127,0,0)
GPGPU-Sim PTX: 1800000 instructions simulated : ctaid=(105,0,0) tid=(127,0,0)
GPGPU-Sim uArch: cycles simulated: 5000  inst.: 1839680 (ipc=367.9) sim_rate=204408 (inst/sec) elapsed = 0:0:00:09 / Tue Apr 16 16:48:55 2019
GPGPU-Sim PTX: 1900000 instructions simulated : ctaid=(83,0,0) tid=(31,0,0)
GPGPU-Sim PTX: 2000000 instructions simulated : ctaid=(75,0,0) tid=(63,0,0)
GPGPU-Sim PTX: 2100000 instructions simulated : ctaid=(29,0,0) tid=(31,0,0)
GPGPU-Sim uArch: cycles simulated: 5500  inst.: 2087712 (ipc=379.6) sim_rate=208771 (inst/sec) elapsed = 0:0:00:10 / Tue Apr 16 16:48:56 2019
GPGPU-Sim PTX: 2200000 instructions simulated : ctaid=(19,0,0) tid=(127,0,0)
GPGPU-Sim PTX: 2300000 instructions simulated : ctaid=(23,0,0) tid=(31,0,0)
GPGPU-Sim PTX: 2400000 instructions simulated : ctaid=(66,0,0) tid=(31,0,0)
GPGPU-Sim PTX: 2500000 instructions simulated : ctaid=(10,0,0) tid=(127,0,0)
GPGPU-Sim PTX: 2600000 instructions simulated : ctaid=(72,0,0) tid=(95,0,0)
GPGPU-Sim PTX: 2700000 instructions simulated : ctaid=(60,0,0) tid=(127,0,0)
GPGPU-Sim uArch: cycles simulated: 6500  inst.: 2733184 (ipc=420.5) sim_rate=248471 (inst/sec) elapsed = 0:0:00:11 / Tue Apr 16 16:48:57 2019
GPGPU-Sim PTX: 2800000 instructions simulated : ctaid=(57,0,0) tid=(95,0,0)
GPGPU-Sim PTX: 2900000 instructions simulated : ctaid=(12,0,0) tid=(95,0,0)
GPGPU-Sim PTX: 3000000 instructions simulated : ctaid=(100,0,0) tid=(95,0,0)
GPGPU-Sim uArch: cycles simulated: 7000  inst.: 3017280 (ipc=431.0) sim_rate=251440 (inst/sec) elapsed = 0:0:00:12 / Tue Apr 16 16:48:58 2019
GPGPU-Sim PTX: 3100000 instructions simulated : ctaid=(4,0,0) tid=(63,0,0)
GPGPU-Sim PTX: 3200000 instructions simulated : ctaid=(22,0,0) tid=(95,0,0)
GPGPU-Sim PTX: 3300000 instructions simulated : ctaid=(24,0,0) tid=(31,0,0)
GPGPU-Sim PTX: 3400000 instructions simulated : ctaid=(43,0,0) tid=(95,0,0)
GPGPU-Sim PTX: 3500000 instructions simulated : ctaid=(6,0,0) tid=(95,0,0)
GPGPU-Sim PTX: 3600000 instructions simulated : ctaid=(61,0,0) tid=(31,0,0)
GPGPU-Sim uArch: cycles simulated: 8000  inst.: 3579200 (ipc=447.4) sim_rate=255657 (inst/sec) elapsed = 0:0:00:14 / Tue Apr 16 16:49:00 2019
GPGPU-Sim PTX: 3700000 instructions simulated : ctaid=(37,0,0) tid=(63,0,0)
GPGPU-Sim PTX: 3800000 instructions simulated : ctaid=(12,0,0) tid=(95,0,0)
GPGPU-Sim uArch: cycles simulated: 8500  inst.: 3856352 (ipc=453.7) sim_rate=257090 (inst/sec) elapsed = 0:0:00:15 / Tue Apr 16 16:49:01 2019
GPGPU-Sim PTX: 3900000 instructions simulated : ctaid=(40,0,0) tid=(127,0,0)
GPGPU-Sim PTX: 4000000 instructions simulated : ctaid=(7,0,0) tid=(31,0,0)
GPGPU-Sim PTX: 4100000 instructions simulated : ctaid=(52,0,0) tid=(31,0,0)
GPGPU-Sim uArch: cycles simulated: 9000  inst.: 4130048 (ipc=458.9) sim_rate=258128 (inst/sec) elapsed = 0:0:00:16 / Tue Apr 16 16:49:02 2019
GPGPU-Sim PTX: 4200000 instructions simulated : ctaid=(51,0,0) tid=(95,0,0)
GPGPU-Sim PTX: 4300000 instructions simulated : ctaid=(63,0,0) tid=(127,0,0)
GPGPU-Sim PTX: 4400000 instructions simulated : ctaid=(62,0,0) tid=(127,0,0)
GPGPU-Sim uArch: cycles simulated: 9500  inst.: 4415136 (ipc=464.8) sim_rate=259713 (inst/sec) elapsed = 0:0:00:17 / Tue Apr 16 16:49:03 2019
GPGPU-Sim PTX: 4500000 instructions simulated : ctaid=(70,0,0) tid=(63,0,0)
GPGPU-Sim PTX: 4600000 instructions simulated : ctaid=(34,0,0) tid=(127,0,0)
GPGPU-Sim PTX: 4700000 instructions simulated : ctaid=(100,0,0) tid=(127,0,0)
GPGPU-Sim PTX: 4800000 instructions simulated : ctaid=(65,0,0) tid=(127,0,0)
GPGPU-Sim PTX: 4900000 instructions simulated : ctaid=(67,0,0) tid=(31,0,0)
GPGPU-Sim PTX: 5000000 instructions simulated : ctaid=(90,0,0) tid=(31,0,0)
GPGPU-Sim uArch: cycles simulated: 10500  inst.: 4979616 (ipc=474.2) sim_rate=276645 (inst/sec) elapsed = 0:0:00:18 / Tue Apr 16 16:49:04 2019
GPGPU-Sim PTX: 5100000 instructions simulated : ctaid=(2,0,0) tid=(31,0,0)
GPGPU-Sim PTX: 5200000 instructions simulated : ctaid=(51,0,0) tid=(63,0,0)
GPGPU-Sim PTX: 5300000 instructions simulated : ctaid=(40,0,0) tid=(95,0,0)
GPGPU-Sim uArch: cycles simulated: 11000  inst.: 5279616 (ipc=480.0) sim_rate=277874 (inst/sec) elapsed = 0:0:00:19 / Tue Apr 16 16:49:05 2019
GPGPU-Sim PTX: 5400000 instructions simulated : ctaid=(3,0,0) tid=(95,0,0)
GPGPU-Sim PTX: 5500000 instructions simulated : ctaid=(32,0,0) tid=(31,0,0)
GPGPU-Sim uArch: cycles simulated: 11500  inst.: 5558336 (ipc=483.3) sim_rate=277916 (inst/sec) elapsed = 0:0:00:20 / Tue Apr 16 16:49:06 2019
GPGPU-Sim PTX: 5600000 instructions simulated : ctaid=(10,0,0) tid=(95,0,0)
GPGPU-Sim PTX: 5700000 instructions simulated : ctaid=(67,0,0) tid=(63,0,0)
GPGPU-Sim PTX: 5800000 instructions simulated : ctaid=(30,0,0) tid=(31,0,0)
GPGPU-Sim uArch: cycles simulated: 12000  inst.: 5855008 (ipc=487.9) sim_rate=278809 (inst/sec) elapsed = 0:0:00:21 / Tue Apr 16 16:49:07 2019
GPGPU-Sim PTX: 5900000 instructions simulated : ctaid=(68,0,0) tid=(95,0,0)
GPGPU-Sim PTX: 6000000 instructions simulated : ctaid=(4,0,0) tid=(31,0,0)
GPGPU-Sim PTX: 6100000 instructions simulated : ctaid=(32,0,0) tid=(95,0,0)
GPGPU-Sim PTX: 6200000 instructions simulated : ctaid=(86,0,0) tid=(127,0,0)
GPGPU-Sim uArch: cycles simulated: 12500  inst.: 6167872 (ipc=493.4) sim_rate=280357 (inst/sec) elapsed = 0:0:00:22 / Tue Apr 16 16:49:08 2019
GPGPU-Sim PTX: 6300000 instructions simulated : ctaid=(10,0,0) tid=(95,0,0)
GPGPU-Sim PTX: 6400000 instructions simulated : ctaid=(88,0,0) tid=(63,0,0)
GPGPU-Sim PTX: 6500000 instructions simulated : ctaid=(0,0,0) tid=(31,0,0)
GPGPU-Sim PTX: 6600000 instructions simulated : ctaid=(12,0,0) tid=(63,0,0)
GPGPU-Sim PTX: 6700000 instructions simulated : ctaid=(9,0,0) tid=(127,0,0)
GPGPU-Sim PTX: 6800000 instructions simulated : ctaid=(10,0,0) tid=(63,0,0)
GPGPU-Sim uArch: cycles simulated: 13500  inst.: 6768160 (ipc=501.3) sim_rate=294267 (inst/sec) elapsed = 0:0:00:23 / Tue Apr 16 16:49:09 2019
GPGPU-Sim PTX: 6900000 instructions simulated : ctaid=(10,0,0) tid=(31,0,0)
GPGPU-Sim PTX: 7000000 instructions simulated : ctaid=(105,0,0) tid=(63,0,0)
GPGPU-Sim PTX: 7100000 instructions simulated : ctaid=(84,0,0) tid=(31,0,0)
GPGPU-Sim PTX: 7200000 instructions simulated : ctaid=(34,0,0) tid=(31,0,0)
GPGPU-Sim PTX: 7300000 instructions simulated : ctaid=(10,0,0) tid=(127,0,0)
GPGPU-Sim PTX: 7400000 instructions simulated : ctaid=(0,0,0) tid=(127,0,0)
GPGPU-Sim uArch: cycles simulated: 14500  inst.: 7370336 (ipc=508.3) sim_rate=307097 (inst/sec) elapsed = 0:0:00:24 / Tue Apr 16 16:49:10 2019
GPGPU-Sim PTX: 7500000 instructions simulated : ctaid=(84,0,0) tid=(95,0,0)
GPGPU-Sim PTX: 7600000 instructions simulated : ctaid=(65,0,0) tid=(127,0,0)
GPGPU-Sim PTX: 7700000 instructions simulated : ctaid=(52,0,0) tid=(127,0,0)
GPGPU-Sim uArch: cycles simulated: 15000  inst.: 7671776 (ipc=511.5) sim_rate=306871 (inst/sec) elapsed = 0:0:00:25 / Tue Apr 16 16:49:11 2019
GPGPU-Sim PTX: 7800000 instructions simulated : ctaid=(74,0,0) tid=(95,0,0)
GPGPU-Sim PTX: 7900000 instructions simulated : ctaid=(2,0,0) tid=(63,0,0)
GPGPU-Sim PTX: 8000000 instructions simulated : ctaid=(17,0,0) tid=(31,0,0)
GPGPU-Sim uArch: cycles simulated: 15500  inst.: 7981120 (ipc=514.9) sim_rate=295597 (inst/sec) elapsed = 0:0:00:27 / Tue Apr 16 16:49:13 2019
GPGPU-Sim PTX: 8100000 instructions simulated : ctaid=(64,0,0) tid=(31,0,0)
GPGPU-Sim PTX: 8200000 instructions simulated : ctaid=(1,0,0) tid=(95,0,0)
GPGPU-Sim uArch: cycles simulated: 16000  inst.: 8245472 (ipc=515.3) sim_rate=294481 (inst/sec) elapsed = 0:0:00:28 / Tue Apr 16 16:49:14 2019
GPGPU-Sim PTX: 8300000 instructions simulated : ctaid=(1,0,0) tid=(95,0,0)
GPGPU-Sim PTX: 8400000 instructions simulated : ctaid=(54,0,0) tid=(95,0,0)
GPGPU-Sim PTX: 8500000 instructions simulated : ctaid=(5,0,0) tid=(95,0,0)
GPGPU-Sim uArch: cycles simulated: 16500  inst.: 8510656 (ipc=515.8) sim_rate=293470 (inst/sec) elapsed = 0:0:00:29 / Tue Apr 16 16:49:15 2019
GPGPU-Sim PTX: 8600000 instructions simulated : ctaid=(53,0,0) tid=(63,0,0)
GPGPU-Sim PTX: 8700000 instructions simulated : ctaid=(22,0,0) tid=(63,0,0)
GPGPU-Sim PTX: 8800000 instructions simulated : ctaid=(20,0,0) tid=(95,0,0)
GPGPU-Sim uArch: cycles simulated: 17000  inst.: 8810144 (ipc=518.2) sim_rate=293671 (inst/sec) elapsed = 0:0:00:30 / Tue Apr 16 16:49:16 2019
GPGPU-Sim PTX: 8900000 instructions simulated : ctaid=(34,0,0) tid=(127,0,0)
GPGPU-Sim PTX: 9000000 instructions simulated : ctaid=(13,0,0) tid=(127,0,0)
GPGPU-Sim PTX: 9100000 instructions simulated : ctaid=(53,0,0) tid=(31,0,0)
GPGPU-Sim uArch: cycles simulated: 17500  inst.: 9127936 (ipc=521.6) sim_rate=294449 (inst/sec) elapsed = 0:0:00:31 / Tue Apr 16 16:49:17 2019
GPGPU-Sim PTX: 9200000 instructions simulated : ctaid=(4,0,0) tid=(63,0,0)
GPGPU-Sim PTX: 9300000 instructions simulated : ctaid=(100,0,0) tid=(31,0,0)
GPGPU-Sim PTX: 9400000 instructions simulated : ctaid=(107,0,0) tid=(31,0,0)
GPGPU-Sim PTX: 9500000 instructions simulated : ctaid=(1,0,0) tid=(31,0,0)
GPGPU-Sim PTX: 9600000 instructions simulated : ctaid=(53,0,0) tid=(63,0,0)
GPGPU-Sim PTX: 9700000 instructions simulated : ctaid=(31,0,0) tid=(31,0,0)
GPGPU-Sim uArch: cycles simulated: 18500  inst.: 9717056 (ipc=525.2) sim_rate=303658 (inst/sec) elapsed = 0:0:00:32 / Tue Apr 16 16:49:18 2019
GPGPU-Sim PTX: 9800000 instructions simulated : ctaid=(81,0,0) tid=(127,0,0)
GPGPU-Sim PTX: 9900000 instructions simulated : ctaid=(7,0,0) tid=(63,0,0)
GPGPU-Sim PTX: 10000000 instructions simulated : ctaid=(116,0,0) tid=(31,0,0)
GPGPU-Sim uArch: cycles simulated: 19000  inst.: 10014976 (ipc=527.1) sim_rate=303484 (inst/sec) elapsed = 0:0:00:33 / Tue Apr 16 16:49:19 2019
GPGPU-Sim PTX: 10100000 instructions simulated : ctaid=(10,0,0) tid=(127,0,0)
GPGPU-Sim PTX: 10200000 instructions simulated : ctaid=(57,0,0) tid=(127,0,0)
GPGPU-Sim PTX: 10300000 instructions simulated : ctaid=(103,0,0) tid=(31,0,0)
GPGPU-Sim uArch: cycles simulated: 19500  inst.: 10310176 (ipc=528.7) sim_rate=303240 (inst/sec) elapsed = 0:0:00:34 / Tue Apr 16 16:49:20 2019
GPGPU-Sim PTX: 10400000 instructions simulated : ctaid=(26,0,0) tid=(127,0,0)
GPGPU-Sim PTX: 10500000 instructions simulated : ctaid=(50,0,0) tid=(31,0,0)
GPGPU-Sim PTX: 10600000 instructions simulated : ctaid=(52,0,0) tid=(95,0,0)
GPGPU-Sim PTX: 10700000 instructions simulated : ctaid=(7,0,0) tid=(63,0,0)
GPGPU-Sim PTX: 10800000 instructions simulated : ctaid=(22,0,0) tid=(127,0,0)
GPGPU-Sim PTX: 10900000 instructions simulated : ctaid=(41,0,0) tid=(95,0,0)
GPGPU-Sim uArch: cycles simulated: 20500  inst.: 10881088 (ipc=530.8) sim_rate=310888 (inst/sec) elapsed = 0:0:00:35 / Tue Apr 16 16:49:21 2019
GPGPU-Sim PTX: 11000000 instructions simulated : ctaid=(22,0,0) tid=(63,0,0)
GPGPU-Sim PTX: 11100000 instructions simulated : ctaid=(79,0,0) tid=(95,0,0)
GPGPU-Sim uArch: cycles simulated: 21000  inst.: 11146144 (ipc=530.8) sim_rate=309615 (inst/sec) elapsed = 0:0:00:36 / Tue Apr 16 16:49:22 2019
GPGPU-Sim PTX: 11200000 instructions simulated : ctaid=(77,0,0) tid=(127,0,0)
GPGPU-Sim PTX: 11300000 instructions simulated : ctaid=(58,0,0) tid=(95,0,0)
GPGPU-Sim PTX: 11400000 instructions simulated : ctaid=(101,0,0) tid=(95,0,0)
GPGPU-Sim uArch: cycles simulated: 21500  inst.: 11426144 (ipc=531.4) sim_rate=308814 (inst/sec) elapsed = 0:0:00:37 / Tue Apr 16 16:49:23 2019
GPGPU-Sim PTX: 11500000 instructions simulated : ctaid=(49,0,0) tid=(31,0,0)
GPGPU-Sim PTX: 11600000 instructions simulated : ctaid=(52,0,0) tid=(31,0,0)
GPGPU-Sim PTX: 11700000 instructions simulated : ctaid=(3,0,0) tid=(63,0,0)
GPGPU-Sim uArch: cycles simulated: 22000  inst.: 11715392 (ipc=532.5) sim_rate=300394 (inst/sec) elapsed = 0:0:00:39 / Tue Apr 16 16:49:25 2019
GPGPU-Sim PTX: 11800000 instructions simulated : ctaid=(64,0,0) tid=(95,0,0)
GPGPU-Sim PTX: 11900000 instructions simulated : ctaid=(37,0,0) tid=(63,0,0)
GPGPU-Sim PTX: 12000000 instructions simulated : ctaid=(79,0,0) tid=(31,0,0)
GPGPU-Sim uArch: cycles simulated: 22500  inst.: 12006272 (ipc=533.6) sim_rate=300156 (inst/sec) elapsed = 0:0:00:40 / Tue Apr 16 16:49:26 2019
GPGPU-Sim PTX: 12100000 instructions simulated : ctaid=(72,0,0) tid=(95,0,0)
GPGPU-Sim PTX: 12200000 instructions simulated : ctaid=(22,0,0) tid=(127,0,0)
GPGPU-Sim PTX: 12300000 instructions simulated : ctaid=(23,0,0) tid=(95,0,0)
GPGPU-Sim PTX: 12400000 instructions simulated : ctaid=(56,0,0) tid=(95,0,0)
GPGPU-Sim PTX: 12500000 instructions simulated : ctaid=(85,0,0) tid=(127,0,0)
GPGPU-Sim PTX: 12600000 instructions simulated : ctaid=(49,0,0) tid=(127,0,0)
GPGPU-Sim uArch: cycles simulated: 23500  inst.: 12584000 (ipc=535.5) sim_rate=306926 (inst/sec) elapsed = 0:0:00:41 / Tue Apr 16 16:49:27 2019
GPGPU-Sim PTX: 12700000 instructions simulated : ctaid=(56,0,0) tid=(127,0,0)
GPGPU-Sim PTX: 12800000 instructions simulated : ctaid=(27,0,0) tid=(31,0,0)
GPGPU-Sim PTX: 12900000 instructions simulated : ctaid=(34,0,0) tid=(127,0,0)
GPGPU-Sim uArch: cycles simulated: 24000  inst.: 12875328 (ipc=536.5) sim_rate=306555 (inst/sec) elapsed = 0:0:00:42 / Tue Apr 16 16:49:28 2019
GPGPU-Sim PTX: 13000000 instructions simulated : ctaid=(85,0,0) tid=(95,0,0)
GPGPU-Sim PTX: 13100000 instructions simulated : ctaid=(8,0,0) tid=(63,0,0)
GPGPU-Sim PTX: 13200000 instructions simulated : ctaid=(12,0,0) tid=(63,0,0)
GPGPU-Sim PTX: 13300000 instructions simulated : ctaid=(40,0,0) tid=(63,0,0)
GPGPU-Sim PTX: 13400000 instructions simulated : ctaid=(95,0,0) tid=(127,0,0)
GPGPU-Sim uArch: cycles simulated: 25000  inst.: 13445824 (ipc=537.8) sim_rate=312693 (inst/sec) elapsed = 0:0:00:43 / Tue Apr 16 16:49:29 2019
GPGPU-Sim PTX: 13500000 instructions simulated : ctaid=(97,0,0) tid=(95,0,0)
GPGPU-Sim PTX: 13600000 instructions simulated : ctaid=(56,0,0) tid=(31,0,0)
GPGPU-Sim PTX: 13700000 instructions simulated : ctaid=(19,0,0) tid=(95,0,0)
GPGPU-Sim uArch: cycles simulated: 25500  inst.: 13722112 (ipc=538.1) sim_rate=311866 (inst/sec) elapsed = 0:0:00:44 / Tue Apr 16 16:49:30 2019
GPGPU-Sim PTX: 13800000 instructions simulated : ctaid=(25,0,0) tid=(127,0,0)
GPGPU-Sim PTX: 13900000 instructions simulated : ctaid=(77,0,0) tid=(63,0,0)
GPGPU-Sim PTX: 14000000 instructions simulated : ctaid=(34,0,0) tid=(31,0,0)
GPGPU-Sim uArch: cycles simulated: 26000  inst.: 14008448 (ipc=538.8) sim_rate=311298 (inst/sec) elapsed = 0:0:00:45 / Tue Apr 16 16:49:31 2019
GPGPU-Sim PTX: 14100000 instructions simulated : ctaid=(22,0,0) tid=(63,0,0)
GPGPU-Sim PTX: 14200000 instructions simulated : ctaid=(12,0,0) tid=(63,0,0)
GPGPU-Sim PTX: 14300000 instructions simulated : ctaid=(18,0,0) tid=(63,0,0)
GPGPU-Sim uArch: cycles simulated: 26500  inst.: 14292032 (ipc=539.3) sim_rate=310696 (inst/sec) elapsed = 0:0:00:46 / Tue Apr 16 16:49:32 2019
GPGPU-Sim PTX: 14400000 instructions simulated : ctaid=(74,0,0) tid=(31,0,0)
GPGPU-Sim PTX: 14500000 instructions simulated : ctaid=(38,0,0) tid=(31,0,0)
GPGPU-Sim PTX: 14600000 instructions simulated : ctaid=(35,0,0) tid=(63,0,0)
GPGPU-Sim uArch: cycles simulated: 27000  inst.: 14593344 (ipc=540.5) sim_rate=310496 (inst/sec) elapsed = 0:0:00:47 / Tue Apr 16 16:49:33 2019
GPGPU-Sim PTX: 14700000 instructions simulated : ctaid=(77,0,0) tid=(31,0,0)
GPGPU-Sim PTX: 14800000 instructions simulated : ctaid=(25,0,0) tid=(127,0,0)
GPGPU-Sim PTX: 14900000 instructions simulated : ctaid=(52,0,0) tid=(31,0,0)
GPGPU-Sim PTX: 15000000 instructions simulated : ctaid=(54,0,0) tid=(31,0,0)
GPGPU-Sim PTX: 15100000 instructions simulated : ctaid=(20,0,0) tid=(63,0,0)
GPGPU-Sim PTX: 15200000 instructions simulated : ctaid=(40,0,0) tid=(95,0,0)
GPGPU-Sim uArch: cycles simulated: 28000  inst.: 15206336 (ipc=543.1) sim_rate=316798 (inst/sec) elapsed = 0:0:00:48 / Tue Apr 16 16:49:34 2019
GPGPU-Sim PTX: 15300000 instructions simulated : ctaid=(31,0,0) tid=(95,0,0)
GPGPU-Sim PTX: 15400000 instructions simulated : ctaid=(9,0,0) tid=(31,0,0)
GPGPU-Sim PTX: 15500000 instructions simulated : ctaid=(13,0,0) tid=(95,0,0)
GPGPU-Sim uArch: cycles simulated: 28500  inst.: 15504320 (ipc=544.0) sim_rate=316414 (inst/sec) elapsed = 0:0:00:49 / Tue Apr 16 16:49:35 2019
GPGPU-Sim PTX: 15600000 instructions simulated : ctaid=(44,0,0) tid=(95,0,0)
GPGPU-Sim PTX: 15700000 instructions simulated : ctaid=(12,0,0) tid=(63,0,0)
GPGPU-Sim PTX: 15800000 instructions simulated : ctaid=(0,0,0) tid=(63,0,0)
GPGPU-Sim uArch: cycles simulated: 29000  inst.: 15790592 (ipc=544.5) sim_rate=315811 (inst/sec) elapsed = 0:0:00:50 / Tue Apr 16 16:49:36 2019
GPGPU-Sim PTX: 15900000 instructions simulated : ctaid=(34,0,0) tid=(95,0,0)
GPGPU-Sim PTX: 16000000 instructions simulated : ctaid=(87,0,0) tid=(127,0,0)
GPGPU-Sim PTX: 16100000 instructions simulated : ctaid=(79,0,0) tid=(31,0,0)
GPGPU-Sim PTX: 16200000 instructions simulated : ctaid=(30,0,0) tid=(31,0,0)
GPGPU-Sim PTX: 16300000 instructions simulated : ctaid=(28,0,0) tid=(127,0,0)
GPGPU-Sim uArch: cycles simulated: 30000  inst.: 16348544 (ipc=545.0) sim_rate=320559 (inst/sec) elapsed = 0:0:00:51 / Tue Apr 16 16:49:37 2019
GPGPU-Sim PTX: 16400000 instructions simulated : ctaid=(24,0,0) tid=(95,0,0)
GPGPU-Sim PTX: 16500000 instructions simulated : ctaid=(77,0,0) tid=(31,0,0)
GPGPU-Sim PTX: 16600000 instructions simulated : ctaid=(14,0,0) tid=(95,0,0)
GPGPU-Sim uArch: cycles simulated: 30500  inst.: 16624640 (ipc=545.1) sim_rate=319704 (inst/sec) elapsed = 0:0:00:52 / Tue Apr 16 16:49:38 2019
GPGPU-Sim PTX: 16700000 instructions simulated : ctaid=(50,0,0) tid=(127,0,0)
GPGPU-Sim PTX: 16800000 instructions simulated : ctaid=(56,0,0) tid=(63,0,0)
GPGPU-Sim PTX: 16900000 instructions simulated : ctaid=(21,0,0) tid=(95,0,0)
GPGPU-Sim uArch: cycles simulated: 31000  inst.: 16922912 (ipc=545.9) sim_rate=319300 (inst/sec) elapsed = 0:0:00:53 / Tue Apr 16 16:49:39 2019
GPGPU-Sim PTX: 17000000 instructions simulated : ctaid=(34,0,0) tid=(63,0,0)
GPGPU-Sim PTX: 17100000 instructions simulated : ctaid=(27,0,0) tid=(127,0,0)
GPGPU-Sim PTX: 17200000 instructions simulated : ctaid=(3,0,0) tid=(31,0,0)
GPGPU-Sim uArch: cycles simulated: 31500  inst.: 17214048 (ipc=546.5) sim_rate=318778 (inst/sec) elapsed = 0:0:00:54 / Tue Apr 16 16:49:40 2019
GPGPU-Sim PTX: 17300000 instructions simulated : ctaid=(9,0,0) tid=(31,0,0)
GPGPU-Sim PTX: 17400000 instructions simulated : ctaid=(20,0,0) tid=(31,0,0)
GPGPU-Sim PTX: 17500000 instructions simulated : ctaid=(26,0,0) tid=(63,0,0)
GPGPU-Sim uArch: cycles simulated: 32000  inst.: 17486112 (ipc=546.4) sim_rate=317929 (inst/sec) elapsed = 0:0:00:55 / Tue Apr 16 16:49:41 2019
GPGPU-Sim PTX: 17600000 instructions simulated : ctaid=(48,0,0) tid=(127,0,0)
GPGPU-Sim PTX: 17700000 instructions simulated : ctaid=(7,0,0) tid=(63,0,0)
GPGPU-Sim uArch: cycles simulated: 32500  inst.: 17756064 (ipc=546.3) sim_rate=317072 (inst/sec) elapsed = 0:0:00:56 / Tue Apr 16 16:49:42 2019
GPGPU-Sim PTX: 17800000 instructions simulated : ctaid=(15,0,0) tid=(127,0,0)
GPGPU-Sim PTX: 17900000 instructions simulated : ctaid=(83,0,0) tid=(95,0,0)
GPGPU-Sim PTX: 18000000 instructions simulated : ctaid=(36,0,0) tid=(127,0,0)
GPGPU-Sim uArch: cycles simulated: 33000  inst.: 18034400 (ipc=546.5) sim_rate=316392 (inst/sec) elapsed = 0:0:00:57 / Tue Apr 16 16:49:43 2019
GPGPU-Sim PTX: 18100000 instructions simulated : ctaid=(53,0,0) tid=(63,0,0)
GPGPU-Sim PTX: 18200000 instructions simulated : ctaid=(33,0,0) tid=(127,0,0)
GPGPU-Sim PTX: 18300000 instructions simulated : ctaid=(29,0,0) tid=(31,0,0)
GPGPU-Sim uArch: cycles simulated: 33500  inst.: 18307040 (ipc=546.5) sim_rate=315638 (inst/sec) elapsed = 0:0:00:58 / Tue Apr 16 16:49:44 2019
GPGPU-Sim PTX: 18400000 instructions simulated : ctaid=(6,0,0) tid=(95,0,0)
GPGPU-Sim PTX: 18500000 instructions simulated : ctaid=(35,0,0) tid=(127,0,0)
GPGPU-Sim PTX: 18600000 instructions simulated : ctaid=(23,0,0) tid=(31,0,0)
GPGPU-Sim uArch: cycles simulated: 34000  inst.: 18581952 (ipc=546.5) sim_rate=314948 (inst/sec) elapsed = 0:0:00:59 / Tue Apr 16 16:49:45 2019
GPGPU-Sim PTX: 18700000 instructions simulated : ctaid=(96,0,0) tid=(95,0,0)
GPGPU-Sim PTX: 18800000 instructions simulated : ctaid=(53,0,0) tid=(31,0,0)
GPGPU-Sim uArch: cycles simulated: 34500  inst.: 18846848 (ipc=546.3) sim_rate=314114 (inst/sec) elapsed = 0:0:01:00 / Tue Apr 16 16:49:46 2019
GPGPU-Sim PTX: 18900000 instructions simulated : ctaid=(7,0,0) tid=(63,0,0)
GPGPU-Sim PTX: 19000000 instructions simulated : ctaid=(30,0,0) tid=(95,0,0)
GPGPU-Sim PTX: 19100000 instructions simulated : ctaid=(46,0,0) tid=(95,0,0)
GPGPU-Sim PTX: 19200000 instructions simulated : ctaid=(60,0,0) tid=(127,0,0)
GPGPU-Sim PTX: 19300000 instructions simulated : ctaid=(31,0,0) tid=(95,0,0)
GPGPU-Sim PTX: 19400000 instructions simulated : ctaid=(20,0,0) tid=(31,0,0)
GPGPU-Sim uArch: cycles simulated: 35500  inst.: 19436896 (ipc=547.5) sim_rate=318637 (inst/sec) elapsed = 0:0:01:01 / Tue Apr 16 16:49:47 2019
GPGPU-Sim PTX: 19500000 instructions simulated : ctaid=(36,0,0) tid=(31,0,0)
GPGPU-Sim PTX: 19600000 instructions simulated : ctaid=(35,0,0) tid=(31,0,0)
GPGPU-Sim PTX: 19700000 instructions simulated : ctaid=(77,0,0) tid=(127,0,0)
GPGPU-Sim uArch: cycles simulated: 36000  inst.: 19742560 (ipc=548.4) sim_rate=318428 (inst/sec) elapsed = 0:0:01:02 / Tue Apr 16 16:49:48 2019
GPGPU-Sim PTX: 19800000 instructions simulated : ctaid=(33,0,0) tid=(63,0,0)
GPGPU-Sim PTX: 19900000 instructions simulated : ctaid=(33,0,0) tid=(31,0,0)
GPGPU-Sim PTX: 20000000 instructions simulated : ctaid=(39,0,0) tid=(127,0,0)
GPGPU-Sim uArch: cycles simulated: 36500  inst.: 20040576 (ipc=549.1) sim_rate=318104 (inst/sec) elapsed = 0:0:01:03 / Tue Apr 16 16:49:49 2019
GPGPU-Sim PTX: 20100000 instructions simulated : ctaid=(49,0,0) tid=(63,0,0)
GPGPU-Sim PTX: 20200000 instructions simulated : ctaid=(46,0,0) tid=(31,0,0)
GPGPU-Sim PTX: 20300000 instructions simulated : ctaid=(10,0,0) tid=(31,0,0)
GPGPU-Sim PTX: 20400000 instructions simulated : ctaid=(33,0,0) tid=(63,0,0)
GPGPU-Sim PTX: 20500000 instructions simulated : ctaid=(104,0,0) tid=(63,0,0)
GPGPU-Sim PTX: 20600000 instructions simulated : ctaid=(15,0,0) tid=(95,0,0)
GPGPU-Sim uArch: cycles simulated: 37500  inst.: 20626272 (ipc=550.0) sim_rate=322285 (inst/sec) elapsed = 0:0:01:04 / Tue Apr 16 16:49:50 2019
GPGPU-Sim PTX: 20700000 instructions simulated : ctaid=(66,0,0) tid=(31,0,0)
GPGPU-Sim PTX: 20800000 instructions simulated : ctaid=(13,0,0) tid=(95,0,0)
GPGPU-Sim PTX: 20900000 instructions simulated : ctaid=(30,0,0) tid=(95,0,0)
GPGPU-Sim uArch: cycles simulated: 38000  inst.: 20900352 (ipc=550.0) sim_rate=321543 (inst/sec) elapsed = 0:0:01:05 / Tue Apr 16 16:49:51 2019
GPGPU-Sim PTX: 21000000 instructions simulated : ctaid=(7,0,0) tid=(31,0,0)
GPGPU-Sim PTX: 21100000 instructions simulated : ctaid=(10,0,0) tid=(31,0,0)
GPGPU-Sim PTX: 21200000 instructions simulated : ctaid=(96,0,0) tid=(31,0,0)
GPGPU-Sim uArch: cycles simulated: 38500  inst.: 21178560 (ipc=550.1) sim_rate=320887 (inst/sec) elapsed = 0:0:01:06 / Tue Apr 16 16:49:52 2019
GPGPU-Sim PTX: 21300000 instructions simulated : ctaid=(5,0,0) tid=(63,0,0)
GPGPU-Sim PTX: 21400000 instructions simulated : ctaid=(41,0,0) tid=(31,0,0)
GPGPU-Sim uArch: cycles simulated: 39000  inst.: 21460608 (ipc=550.3) sim_rate=320307 (inst/sec) elapsed = 0:0:01:07 / Tue Apr 16 16:49:53 2019
GPGPU-Sim PTX: 21500000 instructions simulated : ctaid=(62,0,0) tid=(127,0,0)
GPGPU-Sim PTX: 21600000 instructions simulated : ctaid=(10,0,0) tid=(63,0,0)
GPGPU-Sim PTX: 21700000 instructions simulated : ctaid=(36,0,0) tid=(127,0,0)
GPGPU-Sim PTX: 21800000 instructions simulated : ctaid=(22,0,0) tid=(127,0,0)
GPGPU-Sim PTX: 21900000 instructions simulated : ctaid=(4,0,0) tid=(63,0,0)
GPGPU-Sim PTX: 22000000 instructions simulated : ctaid=(19,0,0) tid=(95,0,0)
GPGPU-Sim uArch: cycles simulated: 40000  inst.: 22017472 (ipc=550.4) sim_rate=323786 (inst/sec) elapsed = 0:0:01:08 / Tue Apr 16 16:49:54 2019
GPGPU-Sim PTX: 22100000 instructions simulated : ctaid=(55,0,0) tid=(95,0,0)
GPGPU-Sim PTX: 22200000 instructions simulated : ctaid=(92,0,0) tid=(31,0,0)
GPGPU-Sim PTX: 22300000 instructions simulated : ctaid=(87,0,0) tid=(127,0,0)
GPGPU-Sim uArch: cycles simulated: 40500  inst.: 22292320 (ipc=550.4) sim_rate=323077 (inst/sec) elapsed = 0:0:01:09 / Tue Apr 16 16:49:55 2019
GPGPU-Sim PTX: 22400000 instructions simulated : ctaid=(0,0,0) tid=(95,0,0)
GPGPU-Sim PTX: 22500000 instructions simulated : ctaid=(50,0,0) tid=(63,0,0)
GPGPU-Sim PTX: 22600000 instructions simulated : ctaid=(38,0,0) tid=(95,0,0)
GPGPU-Sim uArch: cycles simulated: 41000  inst.: 22598368 (ipc=551.2) sim_rate=322833 (inst/sec) elapsed = 0:0:01:10 / Tue Apr 16 16:49:56 2019
GPGPU-Sim PTX: 22700000 instructions simulated : ctaid=(33,0,0) tid=(31,0,0)
GPGPU-Sim PTX: 22800000 instructions simulated : ctaid=(7,0,0) tid=(127,0,0)
GPGPU-Sim PTX: 22900000 instructions simulated : ctaid=(41,0,0) tid=(31,0,0)
GPGPU-Sim PTX: 23000000 instructions simulated : ctaid=(52,0,0) tid=(127,0,0)
GPGPU-Sim PTX: 23100000 instructions simulated : ctaid=(34,0,0) tid=(127,0,0)
GPGPU-Sim PTX: 23200000 instructions simulated : ctaid=(17,0,0) tid=(127,0,0)
GPGPU-Sim uArch: cycles simulated: 42000  inst.: 23198528 (ipc=552.3) sim_rate=326739 (inst/sec) elapsed = 0:0:01:11 / Tue Apr 16 16:49:57 2019
GPGPU-Sim PTX: 23300000 instructions simulated : ctaid=(23,0,0) tid=(95,0,0)
GPGPU-Sim PTX: 23400000 instructions simulated : ctaid=(62,0,0) tid=(31,0,0)
GPGPU-Sim PTX: 23500000 instructions simulated : ctaid=(42,0,0) tid=(31,0,0)
GPGPU-Sim PTX: 23600000 instructions simulated : ctaid=(5,0,0) tid=(63,0,0)
GPGPU-Sim PTX: 23700000 instructions simulated : ctaid=(104,0,0) tid=(31,0,0)
GPGPU-Sim PTX: 23800000 instructions simulated : ctaid=(61,0,0) tid=(63,0,0)
GPGPU-Sim uArch: cycles simulated: 43000  inst.: 23788064 (ipc=553.2) sim_rate=330389 (inst/sec) elapsed = 0:0:01:12 / Tue Apr 16 16:49:58 2019
GPGPU-Sim PTX: 23900000 instructions simulated : ctaid=(12,0,0) tid=(31,0,0)
GPGPU-Sim PTX: 24000000 instructions simulated : ctaid=(41,0,0) tid=(95,0,0)
GPGPU-Sim PTX: 24100000 instructions simulated : ctaid=(0,0,0) tid=(95,0,0)
GPGPU-Sim uArch: cycles simulated: 43500  inst.: 24074912 (ipc=553.4) sim_rate=329793 (inst/sec) elapsed = 0:0:01:13 / Tue Apr 16 16:49:59 2019
GPGPU-Sim PTX: 24200000 instructions simulated : ctaid=(42,0,0) tid=(31,0,0)
GPGPU-Sim PTX: 24300000 instructions simulated : ctaid=(28,0,0) tid=(127,0,0)
GPGPU-Sim uArch: cycles simulated: 44000  inst.: 24353792 (ipc=553.5) sim_rate=329105 (inst/sec) elapsed = 0:0:01:14 / Tue Apr 16 16:50:00 2019
GPGPU-Sim PTX: 24400000 instructions simulated : ctaid=(42,0,0) tid=(63,0,0)
GPGPU-Sim PTX: 24500000 instructions simulated : ctaid=(58,0,0) tid=(95,0,0)
GPGPU-Sim PTX: 24600000 instructions simulated : ctaid=(47,0,0) tid=(95,0,0)
GPGPU-Sim PTX: 24700000 instructions simulated : ctaid=(6,0,0) tid=(63,0,0)
GPGPU-Sim PTX: 24800000 instructions simulated : ctaid=(74,0,0) tid=(31,0,0)
GPGPU-Sim PTX: 24900000 instructions simulated : ctaid=(6,0,0) tid=(31,0,0)
GPGPU-Sim uArch: cycles simulated: 45000  inst.: 24937088 (ipc=554.2) sim_rate=332494 (inst/sec) elapsed = 0:0:01:15 / Tue Apr 16 16:50:01 2019
GPGPU-Sim PTX: 25000000 instructions simulated : ctaid=(15,0,0) tid=(127,0,0)
GPGPU-Sim PTX: 25100000 instructions simulated : ctaid=(80,0,0) tid=(63,0,0)
GPGPU-Sim PTX: 25200000 instructions simulated : ctaid=(13,0,0) tid=(63,0,0)
GPGPU-Sim uArch: cycles simulated: 45500  inst.: 25217376 (ipc=554.2) sim_rate=331807 (inst/sec) elapsed = 0:0:01:16 / Tue Apr 16 16:50:02 2019
GPGPU-Sim PTX: 25300000 instructions simulated : ctaid=(49,0,0) tid=(63,0,0)
GPGPU-Sim PTX: 25400000 instructions simulated : ctaid=(20,0,0) tid=(95,0,0)
GPGPU-Sim PTX: 25500000 instructions simulated : ctaid=(45,0,0) tid=(31,0,0)
GPGPU-Sim uArch: cycles simulated: 46000  inst.: 25510944 (ipc=554.6) sim_rate=331310 (inst/sec) elapsed = 0:0:01:17 / Tue Apr 16 16:50:03 2019
GPGPU-Sim PTX: 25600000 instructions simulated : ctaid=(82,0,0) tid=(63,0,0)
GPGPU-Sim PTX: 25700000 instructions simulated : ctaid=(12,0,0) tid=(63,0,0)
GPGPU-Sim PTX: 25800000 instructions simulated : ctaid=(49,0,0) tid=(31,0,0)
GPGPU-Sim PTX: 25900000 instructions simulated : ctaid=(48,0,0) tid=(95,0,0)
GPGPU-Sim PTX: 26000000 instructions simulated : ctaid=(95,0,0) tid=(63,0,0)
GPGPU-Sim PTX: 26100000 instructions simulated : ctaid=(73,0,0) tid=(95,0,0)
GPGPU-Sim uArch: cycles simulated: 47000  inst.: 26094752 (ipc=555.2) sim_rate=334548 (inst/sec) elapsed = 0:0:01:18 / Tue Apr 16 16:50:04 2019
GPGPU-Sim PTX: 26200000 instructions simulated : ctaid=(87,0,0) tid=(63,0,0)
GPGPU-Sim PTX: 26300000 instructions simulated : ctaid=(46,0,0) tid=(127,0,0)
GPGPU-Sim PTX: 26400000 instructions simulated : ctaid=(12,0,0) tid=(31,0,0)
GPGPU-Sim uArch: cycles simulated: 47500  inst.: 26386624 (ipc=555.5) sim_rate=334007 (inst/sec) elapsed = 0:0:01:19 / Tue Apr 16 16:50:05 2019
GPGPU-Sim PTX: 26500000 instructions simulated : ctaid=(15,0,0) tid=(31,0,0)
GPGPU-Sim PTX: 26600000 instructions simulated : ctaid=(7,0,0) tid=(127,0,0)
GPGPU-Sim PTX: 26700000 instructions simulated : ctaid=(29,0,0) tid=(127,0,0)
GPGPU-Sim uArch: cycles simulated: 48000  inst.: 26675520 (ipc=555.7) sim_rate=333444 (inst/sec) elapsed = 0:0:01:20 / Tue Apr 16 16:50:06 2019
GPGPU-Sim PTX: 26800000 instructions simulated : ctaid=(46,0,0) tid=(95,0,0)
GPGPU-Sim PTX: 26900000 instructions simulated : ctaid=(43,0,0) tid=(127,0,0)
GPGPU-Sim uArch: cycles simulated: 48500  inst.: 26960160 (ipc=555.9) sim_rate=332841 (inst/sec) elapsed = 0:0:01:21 / Tue Apr 16 16:50:07 2019
GPGPU-Sim PTX: 27000000 instructions simulated : ctaid=(38,0,0) tid=(31,0,0)
GPGPU-Sim PTX: 27100000 instructions simulated : ctaid=(71,0,0) tid=(31,0,0)
GPGPU-Sim PTX: 27200000 instructions simulated : ctaid=(75,0,0) tid=(127,0,0)
GPGPU-Sim uArch: cycles simulated: 49000  inst.: 27233632 (ipc=555.8) sim_rate=332117 (inst/sec) elapsed = 0:0:01:22 / Tue Apr 16 16:50:08 2019
GPGPU-Sim PTX: 27300000 instructions simulated : ctaid=(25,0,0) tid=(95,0,0)
GPGPU-Sim PTX: 27400000 instructions simulated : ctaid=(20,0,0) tid=(95,0,0)
GPGPU-Sim PTX: 27500000 instructions simulated : ctaid=(76,0,0) tid=(127,0,0)
GPGPU-Sim PTX: 27600000 instructions simulated : ctaid=(15,0,0) tid=(127,0,0)
GPGPU-Sim PTX: 27700000 instructions simulated : ctaid=(32,0,0) tid=(63,0,0)
GPGPU-Sim PTX: 27800000 instructions simulated : ctaid=(56,0,0) tid=(127,0,0)
GPGPU-Sim uArch: cycles simulated: 50000  inst.: 27806656 (ipc=556.1) sim_rate=335019 (inst/sec) elapsed = 0:0:01:23 / Tue Apr 16 16:50:09 2019
GPGPU-Sim PTX: 27900000 instructions simulated : ctaid=(10,0,0) tid=(127,0,0)
GPGPU-Sim PTX: 28000000 instructions simulated : ctaid=(70,0,0) tid=(31,0,0)
GPGPU-Sim PTX: 28100000 instructions simulated : ctaid=(43,0,0) tid=(127,0,0)
GPGPU-Sim uArch: cycles simulated: 50500  inst.: 28110816 (ipc=556.6) sim_rate=334652 (inst/sec) elapsed = 0:0:01:24 / Tue Apr 16 16:50:10 2019
GPGPU-Sim PTX: 28200000 instructions simulated : ctaid=(6,0,0) tid=(95,0,0)
GPGPU-Sim PTX: 28300000 instructions simulated : ctaid=(65,0,0) tid=(31,0,0)
GPGPU-Sim PTX: 28400000 instructions simulated : ctaid=(51,0,0) tid=(63,0,0)
GPGPU-Sim PTX: 28500000 instructions simulated : ctaid=(43,0,0) tid=(63,0,0)
GPGPU-Sim PTX: 28600000 instructions simulated : ctaid=(24,0,0) tid=(95,0,0)
GPGPU-Sim PTX: 28700000 instructions simulated : ctaid=(17,0,0) tid=(63,0,0)
GPGPU-Sim uArch: cycles simulated: 51500  inst.: 28692448 (ipc=557.1) sim_rate=337558 (inst/sec) elapsed = 0:0:01:25 / Tue Apr 16 16:50:11 2019
GPGPU-Sim PTX: 28800000 instructions simulated : ctaid=(50,0,0) tid=(63,0,0)
GPGPU-Sim PTX: 28900000 instructions simulated : ctaid=(9,0,0) tid=(95,0,0)
GPGPU-Sim PTX: 29000000 instructions simulated : ctaid=(3,0,0) tid=(31,0,0)
GPGPU-Sim uArch: cycles simulated: 52000  inst.: 28983488 (ipc=557.4) sim_rate=337017 (inst/sec) elapsed = 0:0:01:26 / Tue Apr 16 16:50:12 2019
GPGPU-Sim PTX: 29100000 instructions simulated : ctaid=(64,0,0) tid=(31,0,0)
GPGPU-Sim PTX: 29200000 instructions simulated : ctaid=(43,0,0) tid=(127,0,0)
GPGPU-Sim uArch: cycles simulated: 52500  inst.: 29257088 (ipc=557.3) sim_rate=336288 (inst/sec) elapsed = 0:0:01:27 / Tue Apr 16 16:50:13 2019
GPGPU-Sim PTX: 29300000 instructions simulated : ctaid=(59,0,0) tid=(127,0,0)
GPGPU-Sim PTX: 29400000 instructions simulated : ctaid=(72,0,0) tid=(63,0,0)
GPGPU-Sim PTX: 29500000 instructions simulated : ctaid=(72,0,0) tid=(31,0,0)
GPGPU-Sim PTX: 29600000 instructions simulated : ctaid=(78,0,0) tid=(31,0,0)
GPGPU-Sim PTX: 29700000 instructions simulated : ctaid=(3,0,0) tid=(31,0,0)
GPGPU-Sim PTX: 29800000 instructions simulated : ctaid=(17,0,0) tid=(95,0,0)
GPGPU-Sim uArch: cycles simulated: 53500  inst.: 29839968 (ipc=557.8) sim_rate=339090 (inst/sec) elapsed = 0:0:01:28 / Tue Apr 16 16:50:14 2019
GPGPU-Sim PTX: 29900000 instructions simulated : ctaid=(14,0,0) tid=(95,0,0)
GPGPU-Sim PTX: 30000000 instructions simulated : ctaid=(61,0,0) tid=(127,0,0)
GPGPU-Sim PTX: 30100000 instructions simulated : ctaid=(10,0,0) tid=(63,0,0)
GPGPU-Sim uArch: cycles simulated: 54000  inst.: 30130752 (ipc=558.0) sim_rate=338547 (inst/sec) elapsed = 0:0:01:29 / Tue Apr 16 16:50:15 2019
GPGPU-Sim PTX: 30200000 instructions simulated : ctaid=(25,0,0) tid=(63,0,0)
GPGPU-Sim PTX: 30300000 instructions simulated : ctaid=(30,0,0) tid=(95,0,0)
GPGPU-Sim PTX: 30400000 instructions simulated : ctaid=(24,0,0) tid=(95,0,0)
GPGPU-Sim uArch: cycles simulated: 54500  inst.: 30416768 (ipc=558.1) sim_rate=337964 (inst/sec) elapsed = 0:0:01:30 / Tue Apr 16 16:50:16 2019
GPGPU-Sim PTX: 30500000 instructions simulated : ctaid=(67,0,0) tid=(95,0,0)
GPGPU-Sim PTX: 30600000 instructions simulated : ctaid=(40,0,0) tid=(127,0,0)
GPGPU-Sim PTX: 30700000 instructions simulated : ctaid=(55,0,0) tid=(31,0,0)
GPGPU-Sim uArch: cycles simulated: 55000  inst.: 30698496 (ipc=558.2) sim_rate=333679 (inst/sec) elapsed = 0:0:01:32 / Tue Apr 16 16:50:18 2019
GPGPU-Sim PTX: 30800000 instructions simulated : ctaid=(56,0,0) tid=(95,0,0)
GPGPU-Sim PTX: 30900000 instructions simulated : ctaid=(43,0,0) tid=(95,0,0)
GPGPU-Sim uArch: Shader 5 finished CTA #0 (55379,0), 7 CTAs running
GPGPU-Sim uArch: core:  5, cta: 0 initialized @(55380,0)
GPGPU-Sim uArch: cycles simulated: 55500  inst.: 30966880 (ipc=558.0) sim_rate=332977 (inst/sec) elapsed = 0:0:01:33 / Tue Apr 16 16:50:19 2019
GPGPU-Sim PTX: 31000000 instructions simulated : ctaid=(33,0,0) tid=(127,0,0)
GPGPU-Sim PTX: 31100000 instructions simulated : ctaid=(101,0,0) tid=(31,0,0)
GPGPU-Sim PTX: 31200000 instructions simulated : ctaid=(73,0,0) tid=(31,0,0)
GPGPU-Sim PTX: 31300000 instructions simulated : ctaid=(54,0,0) tid=(95,0,0)
GPGPU-Sim uArch: Shader 1 finished CTA #0 (56072,0), 7 CTAs running
GPGPU-Sim uArch: core:  1, cta: 0 initialized @(56073,0)
GPGPU-Sim PTX: 31400000 instructions simulated : ctaid=(76,0,0) tid=(95,0,0)
GPGPU-Sim PTX: 31500000 instructions simulated : ctaid=(15,0,0) tid=(127,0,0)
GPGPU-Sim uArch: cycles simulated: 56500  inst.: 31492224 (ipc=557.4) sim_rate=331497 (inst/sec) elapsed = 0:0:01:35 / Tue Apr 16 16:50:21 2019
GPGPU-Sim PTX: 31600000 instructions simulated : ctaid=(38,0,0) tid=(31,0,0)
GPGPU-Sim uArch: Shader 13 finished CTA #0 (56641,0), 7 CTAs running
GPGPU-Sim uArch: core: 13, cta: 0 initialized @(56642,0)
GPGPU-Sim PTX: 31700000 instructions simulated : ctaid=(118,0,0) tid=(31,0,0)
GPGPU-Sim uArch: Shader 3 finished CTA #0 (56929,0), 7 CTAs running
GPGPU-Sim uArch: core:  3, cta: 0 initialized @(56930,0)
GPGPU-Sim PTX: 31800000 instructions simulated : ctaid=(78,0,0) tid=(95,0,0)
GPGPU-Sim PTX: 31900000 instructions simulated : ctaid=(38,0,0) tid=(127,0,0)
GPGPU-Sim PTX: 32000000 instructions simulated : ctaid=(26,0,0) tid=(63,0,0)
GPGPU-Sim PTX: 32100000 instructions simulated : ctaid=(112,0,0) tid=(95,0,0)
GPGPU-Sim uArch: cycles simulated: 57500  inst.: 32077824 (ipc=557.9) sim_rate=334144 (inst/sec) elapsed = 0:0:01:36 / Tue Apr 16 16:50:22 2019
GPGPU-Sim PTX: 32200000 instructions simulated : ctaid=(73,0,0) tid=(31,0,0)
GPGPU-Sim uArch: Shader 7 finished CTA #0 (57682,0), 7 CTAs running
GPGPU-Sim uArch: core:  7, cta: 0 initialized @(57683,0)
GPGPU-Sim PTX: 32300000 instructions simulated : ctaid=(112,0,0) tid=(31,0,0)
GPGPU-Sim uArch: cycles simulated: 58000  inst.: 32345024 (ipc=557.7) sim_rate=333453 (inst/sec) elapsed = 0:0:01:37 / Tue Apr 16 16:50:23 2019
GPGPU-Sim PTX: 32400000 instructions simulated : ctaid=(49,0,0) tid=(31,0,0)
GPGPU-Sim PTX: 32500000 instructions simulated : ctaid=(55,0,0) tid=(127,0,0)
GPGPU-Sim PTX: 32600000 instructions simulated : ctaid=(47,0,0) tid=(127,0,0)
GPGPU-Sim uArch: Shader 9 finished CTA #0 (58441,0), 7 CTAs running
GPGPU-Sim uArch: core:  9, cta: 0 initialized @(58442,0)
GPGPU-Sim uArch: cycles simulated: 58500  inst.: 32619936 (ipc=557.6) sim_rate=332856 (inst/sec) elapsed = 0:0:01:38 / Tue Apr 16 16:50:24 2019
GPGPU-Sim PTX: 32700000 instructions simulated : ctaid=(27,0,0) tid=(63,0,0)
GPGPU-Sim uArch: Shader 4 finished CTA #0 (58592,0), 7 CTAs running
GPGPU-Sim uArch: core:  4, cta: 0 initialized @(58593,0)
GPGPU-Sim uArch: Shader 11 finished CTA #0 (58712,0), 7 CTAs running
GPGPU-Sim uArch: core: 11, cta: 0 initialized @(58713,0)
GPGPU-Sim PTX: 32800000 instructions simulated : ctaid=(7,0,0) tid=(63,0,0)
GPGPU-Sim uArch: Shader 6 finished CTA #0 (58786,0), 7 CTAs running
GPGPU-Sim uArch: core:  6, cta: 0 initialized @(58787,0)
GPGPU-Sim PTX: 32900000 instructions simulated : ctaid=(98,0,0) tid=(63,0,0)
GPGPU-Sim uArch: Shader 2 finished CTA #0 (58994,0), 7 CTAs running
GPGPU-Sim uArch: core:  2, cta: 0 initialized @(58995,0)
GPGPU-Sim uArch: cycles simulated: 59000  inst.: 32905376 (ipc=557.7) sim_rate=332377 (inst/sec) elapsed = 0:0:01:39 / Tue Apr 16 16:50:25 2019
GPGPU-Sim PTX: 33000000 instructions simulated : ctaid=(50,0,0) tid=(127,0,0)
GPGPU-Sim PTX: 33100000 instructions simulated : ctaid=(109,0,0) tid=(95,0,0)
GPGPU-Sim uArch: Shader 8 finished CTA #0 (59304,0), 7 CTAs running
GPGPU-Sim uArch: core:  8, cta: 0 initialized @(59305,0)
GPGPU-Sim PTX: 33200000 instructions simulated : ctaid=(77,0,0) tid=(31,0,0)
GPGPU-Sim uArch: cycles simulated: 59500  inst.: 33186944 (ipc=557.8) sim_rate=331869 (inst/sec) elapsed = 0:0:01:40 / Tue Apr 16 16:50:26 2019
GPGPU-Sim uArch: Shader 6 finished CTA #1 (59578,0), 7 CTAs running
GPGPU-Sim uArch: core:  6, cta: 1 initialized @(59579,0)
GPGPU-Sim PTX: 33300000 instructions simulated : ctaid=(34,0,0) tid=(95,0,0)
GPGPU-Sim PTX: 33400000 instructions simulated : ctaid=(56,0,0) tid=(31,0,0)
GPGPU-Sim uArch: Shader 0 finished CTA #0 (59841,0), 7 CTAs running
GPGPU-Sim uArch: core:  0, cta: 0 initialized @(59842,0)
GPGPU-Sim uArch: Shader 13 finished CTA #1 (59870,0), 7 CTAs running
GPGPU-Sim uArch: core: 13, cta: 1 initialized @(59871,0)
GPGPU-Sim PTX: 33500000 instructions simulated : ctaid=(116,0,0) tid=(95,0,0)
GPGPU-Sim uArch: cycles simulated: 60000  inst.: 33468704 (ipc=557.8) sim_rate=331373 (inst/sec) elapsed = 0:0:01:41 / Tue Apr 16 16:50:27 2019
GPGPU-Sim PTX: 33600000 instructions simulated : ctaid=(35,0,0) tid=(63,0,0)
GPGPU-Sim PTX: 33700000 instructions simulated : ctaid=(55,0,0) tid=(63,0,0)
GPGPU-Sim uArch: Shader 14 finished CTA #0 (60366,0), 7 CTAs running
GPGPU-Sim uArch: core: 14, cta: 0 initialized @(60367,0)
GPGPU-Sim uArch: Shader 12 finished CTA #0 (60497,0), 7 CTAs running
GPGPU-Sim uArch: core: 12, cta: 0 initialized @(60498,0)
GPGPU-Sim uArch: cycles simulated: 60500  inst.: 33759872 (ipc=558.0) sim_rate=330979 (inst/sec) elapsed = 0:0:01:42 / Tue Apr 16 16:50:28 2019
GPGPU-Sim PTX: 33800000 instructions simulated : ctaid=(72,0,0) tid=(95,0,0)
GPGPU-Sim PTX: 33900000 instructions simulated : ctaid=(49,0,0) tid=(127,0,0)
GPGPU-Sim uArch: Shader 11 finished CTA #1 (60717,0), 7 CTAs running
GPGPU-Sim uArch: core: 11, cta: 1 initialized @(60718,0)
GPGPU-Sim uArch: Shader 14 finished CTA #1 (60823,0), 7 CTAs running
GPGPU-Sim uArch: core: 14, cta: 1 initialized @(60824,0)
GPGPU-Sim PTX: 34000000 instructions simulated : ctaid=(60,0,0) tid=(95,0,0)
GPGPU-Sim uArch: Shader 10 finished CTA #0 (60938,0), 7 CTAs running
GPGPU-Sim uArch: core: 10, cta: 0 initialized @(60939,0)
GPGPU-Sim uArch: cycles simulated: 61000  inst.: 34046784 (ipc=558.1) sim_rate=330551 (inst/sec) elapsed = 0:0:01:43 / Tue Apr 16 16:50:29 2019
GPGPU-Sim PTX: 34100000 instructions simulated : ctaid=(111,0,0) tid=(31,0,0)
GPGPU-Sim PTX: 34200000 instructions simulated : ctaid=(42,0,0) tid=(127,0,0)
GPGPU-Sim uArch: Shader 4 finished CTA #1 (61253,0), 7 CTAs running
GPGPU-Sim uArch: core:  4, cta: 1 initialized @(61254,0)
GPGPU-Sim PTX: 34300000 instructions simulated : ctaid=(63,0,0) tid=(95,0,0)
GPGPU-Sim PTX: 34400000 instructions simulated : ctaid=(119,0,0) tid=(95,0,0)
GPGPU-Sim uArch: Shader 5 finished CTA #1 (61553,0), 7 CTAs running
GPGPU-Sim uArch: core:  5, cta: 1 initialized @(61554,0)
GPGPU-Sim PTX: 34500000 instructions simulated : ctaid=(69,0,0) tid=(63,0,0)
GPGPU-Sim PTX: 34600000 instructions simulated : ctaid=(55,0,0) tid=(63,0,0)
GPGPU-Sim uArch: cycles simulated: 62000  inst.: 34611616 (ipc=558.3) sim_rate=332804 (inst/sec) elapsed = 0:0:01:44 / Tue Apr 16 16:50:30 2019
GPGPU-Sim PTX: 34700000 instructions simulated : ctaid=(37,0,0) tid=(127,0,0)
GPGPU-Sim PTX: 34800000 instructions simulated : ctaid=(30,0,0) tid=(63,0,0)
GPGPU-Sim uArch: Shader 12 finished CTA #1 (62288,0), 7 CTAs running
GPGPU-Sim uArch: core: 12, cta: 1 initialized @(62289,0)
GPGPU-Sim PTX: 34900000 instructions simulated : ctaid=(97,0,0) tid=(63,0,0)
GPGPU-Sim uArch: Shader 13 finished CTA #2 (62456,0), 7 CTAs running
GPGPU-Sim uArch: core: 13, cta: 2 initialized @(62457,0)
GPGPU-Sim uArch: cycles simulated: 62500  inst.: 34886528 (ipc=558.2) sim_rate=332252 (inst/sec) elapsed = 0:0:01:45 / Tue Apr 16 16:50:31 2019
GPGPU-Sim PTX: 35000000 instructions simulated : ctaid=(71,0,0) tid=(31,0,0)
GPGPU-Sim uArch: Shader 3 finished CTA #1 (62756,0), 7 CTAs running
GPGPU-Sim uArch: core:  3, cta: 1 initialized @(62757,0)
GPGPU-Sim PTX: 35100000 instructions simulated : ctaid=(118,0,0) tid=(63,0,0)
GPGPU-Sim uArch: Shader 0 finished CTA #1 (62796,0), 7 CTAs running
GPGPU-Sim uArch: core:  0, cta: 1 initialized @(62797,0)
GPGPU-Sim PTX: 35200000 instructions simulated : ctaid=(52,0,0) tid=(31,0,0)
GPGPU-Sim uArch: cycles simulated: 63000  inst.: 35182112 (ipc=558.4) sim_rate=331906 (inst/sec) elapsed = 0:0:01:46 / Tue Apr 16 16:50:32 2019
GPGPU-Sim PTX: 35300000 instructions simulated : ctaid=(92,0,0) tid=(95,0,0)
GPGPU-Sim uArch: Shader 7 finished CTA #1 (63204,0), 7 CTAs running
GPGPU-Sim uArch: core:  7, cta: 1 initialized @(63205,0)
GPGPU-Sim PTX: 35400000 instructions simulated : ctaid=(58,0,0) tid=(31,0,0)
GPGPU-Sim uArch: Shader 2 finished CTA #1 (63344,0), 7 CTAs running
GPGPU-Sim uArch: core:  2, cta: 1 initialized @(63345,0)
GPGPU-Sim uArch: Shader 10 finished CTA #1 (63366,0), 7 CTAs running
GPGPU-Sim uArch: core: 10, cta: 1 initialized @(63367,0)
GPGPU-Sim PTX: 35500000 instructions simulated : ctaid=(112,0,0) tid=(31,0,0)
GPGPU-Sim uArch: cycles simulated: 63500  inst.: 35465632 (ipc=558.5) sim_rate=331454 (inst/sec) elapsed = 0:0:01:47 / Tue Apr 16 16:50:33 2019
GPGPU-Sim uArch: Shader 5 finished CTA #2 (63548,0), 7 CTAs running
GPGPU-Sim uArch: core:  5, cta: 2 initialized @(63549,0)
GPGPU-Sim uArch: Shader 2 finished CTA #2 (63565,0), 7 CTAs running
GPGPU-Sim uArch: core:  2, cta: 2 initialized @(63566,0)
GPGPU-Sim PTX: 35600000 instructions simulated : ctaid=(89,0,0) tid=(31,0,0)
GPGPU-Sim uArch: Shader 9 finished CTA #1 (63814,0), 7 CTAs running
GPGPU-Sim uArch: core:  9, cta: 1 initialized @(63815,0)
GPGPU-Sim PTX: 35700000 instructions simulated : ctaid=(66,0,0) tid=(95,0,0)
GPGPU-Sim uArch: Shader 8 finished CTA #1 (63913,0), 7 CTAs running
GPGPU-Sim uArch: core:  8, cta: 1 initialized @(63914,0)
GPGPU-Sim uArch: Shader 1 finished CTA #1 (63947,0), 7 CTAs running
GPGPU-Sim uArch: core:  1, cta: 1 initialized @(63948,0)
GPGPU-Sim uArch: cycles simulated: 64000  inst.: 35755392 (ipc=558.7) sim_rate=331068 (inst/sec) elapsed = 0:0:01:48 / Tue Apr 16 16:50:34 2019
GPGPU-Sim PTX: 35800000 instructions simulated : ctaid=(40,0,0) tid=(63,0,0)
GPGPU-Sim PTX: 35900000 instructions simulated : ctaid=(71,0,0) tid=(31,0,0)
GPGPU-Sim uArch: Shader 1 finished CTA #2 (64333,0), 7 CTAs running
GPGPU-Sim uArch: core:  1, cta: 2 initialized @(64334,0)
GPGPU-Sim PTX: 36000000 instructions simulated : ctaid=(153,0,0) tid=(95,0,0)
GPGPU-Sim uArch: Shader 11 finished CTA #2 (64477,0), 7 CTAs running
GPGPU-Sim uArch: core: 11, cta: 2 initialized @(64478,0)
GPGPU-Sim uArch: cycles simulated: 64500  inst.: 36047968 (ipc=558.9) sim_rate=330715 (inst/sec) elapsed = 0:0:01:49 / Tue Apr 16 16:50:35 2019
GPGPU-Sim PTX: 36100000 instructions simulated : ctaid=(78,0,0) tid=(95,0,0)
GPGPU-Sim PTX: 36200000 instructions simulated : ctaid=(151,0,0) tid=(127,0,0)
GPGPU-Sim PTX: 36300000 instructions simulated : ctaid=(74,0,0) tid=(95,0,0)
GPGPU-Sim uArch: Shader 6 finished CTA #2 (64859,0), 7 CTAs running
GPGPU-Sim uArch: core:  6, cta: 2 initialized @(64860,0)
GPGPU-Sim PTX: 36400000 instructions simulated : ctaid=(46,0,0) tid=(31,0,0)
GPGPU-Sim uArch: cycles simulated: 65000  inst.: 36358464 (ipc=559.4) sim_rate=330531 (inst/sec) elapsed = 0:0:01:50 / Tue Apr 16 16:50:36 2019
GPGPU-Sim uArch: Shader 7 finished CTA #2 (65112,0), 7 CTAs running
GPGPU-Sim uArch: core:  7, cta: 2 initialized @(65113,0)
GPGPU-Sim PTX: 36500000 instructions simulated : ctaid=(130,0,0) tid=(95,0,0)
GPGPU-Sim uArch: Shader 4 finished CTA #2 (65230,0), 7 CTAs running
GPGPU-Sim uArch: core:  4, cta: 2 initialized @(65231,0)
GPGPU-Sim PTX: 36600000 instructions simulated : ctaid=(87,0,0) tid=(95,0,0)
GPGPU-Sim uArch: Shader 12 finished CTA #2 (65415,0), 7 CTAs running
GPGPU-Sim uArch: core: 12, cta: 2 initialized @(65416,0)
GPGPU-Sim uArch: Shader 9 finished CTA #2 (65450,0), 7 CTAs running
GPGPU-Sim uArch: core:  9, cta: 2 initialized @(65451,0)
GPGPU-Sim PTX: 36700000 instructions simulated : ctaid=(124,0,0) tid=(95,0,0)
GPGPU-Sim uArch: Shader 0 finished CTA #2 (65636,0), 7 CTAs running
GPGPU-Sim uArch: core:  0, cta: 2 initialized @(65637,0)
GPGPU-Sim PTX: 36800000 instructions simulated : ctaid=(71,0,0) tid=(31,0,0)
GPGPU-Sim PTX: 36900000 instructions simulated : ctaid=(48,0,0) tid=(127,0,0)
GPGPU-Sim PTX: 37000000 instructions simulated : ctaid=(48,0,0) tid=(127,0,0)
GPGPU-Sim uArch: cycles simulated: 66000  inst.: 36966368 (ipc=560.1) sim_rate=333030 (inst/sec) elapsed = 0:0:01:51 / Tue Apr 16 16:50:37 2019
GPGPU-Sim PTX: 37100000 instructions simulated : ctaid=(55,0,0) tid=(63,0,0)
GPGPU-Sim PTX: 37200000 instructions simulated : ctaid=(134,0,0) tid=(31,0,0)
GPGPU-Sim uArch: Shader 8 finished CTA #2 (66424,0), 7 CTAs running
GPGPU-Sim uArch: core:  8, cta: 2 initialized @(66425,0)
GPGPU-Sim PTX: 37300000 instructions simulated : ctaid=(88,0,0) tid=(63,0,0)
GPGPU-Sim uArch: cycles simulated: 66500  inst.: 37267520 (ipc=560.4) sim_rate=332745 (inst/sec) elapsed = 0:0:01:52 / Tue Apr 16 16:50:38 2019
GPGPU-Sim PTX: 37400000 instructions simulated : ctaid=(93,0,0) tid=(95,0,0)
GPGPU-Sim PTX: 37500000 instructions simulated : ctaid=(156,0,0) tid=(31,0,0)
GPGPU-Sim PTX: 37600000 instructions simulated : ctaid=(64,0,0) tid=(95,0,0)
GPGPU-Sim uArch: cycles simulated: 67000  inst.: 37568832 (ipc=560.7) sim_rate=332467 (inst/sec) elapsed = 0:0:01:53 / Tue Apr 16 16:50:39 2019
GPGPU-Sim uArch: Shader 3 finished CTA #2 (67015,0), 7 CTAs running
GPGPU-Sim uArch: core:  3, cta: 2 initialized @(67016,0)
GPGPU-Sim uArch: Shader 10 finished CTA #2 (67130,0), 7 CTAs running
GPGPU-Sim uArch: core: 10, cta: 2 initialized @(67131,0)
GPGPU-Sim PTX: 37700000 instructions simulated : ctaid=(61,0,0) tid=(31,0,0)
GPGPU-Sim uArch: Shader 14 finished CTA #2 (67300,0), 7 CTAs running
GPGPU-Sim uArch: core: 14, cta: 2 initialized @(67301,0)
GPGPU-Sim PTX: 37800000 instructions simulated : ctaid=(117,0,0) tid=(95,0,0)
GPGPU-Sim PTX: 37900000 instructions simulated : ctaid=(131,0,0) tid=(95,0,0)
GPGPU-Sim PTX: 38000000 instructions simulated : ctaid=(48,0,0) tid=(127,0,0)
GPGPU-Sim PTX: 38100000 instructions simulated : ctaid=(105,0,0) tid=(127,0,0)
GPGPU-Sim PTX: 38200000 instructions simulated : ctaid=(109,0,0) tid=(95,0,0)
GPGPU-Sim uArch: cycles simulated: 68000  inst.: 38157120 (ipc=561.1) sim_rate=331801 (inst/sec) elapsed = 0:0:01:55 / Tue Apr 16 16:50:41 2019
GPGPU-Sim PTX: 38300000 instructions simulated : ctaid=(57,0,0) tid=(127,0,0)
GPGPU-Sim PTX: 38400000 instructions simulated : ctaid=(72,0,0) tid=(63,0,0)
GPGPU-Sim PTX: 38500000 instructions simulated : ctaid=(49,0,0) tid=(63,0,0)
GPGPU-Sim PTX: 38600000 instructions simulated : ctaid=(84,0,0) tid=(63,0,0)
GPGPU-Sim PTX: 38700000 instructions simulated : ctaid=(78,0,0) tid=(31,0,0)
GPGPU-Sim PTX: 38800000 instructions simulated : ctaid=(79,0,0) tid=(95,0,0)
GPGPU-Sim uArch: cycles simulated: 69000  inst.: 38756544 (ipc=561.7) sim_rate=334108 (inst/sec) elapsed = 0:0:01:56 / Tue Apr 16 16:50:42 2019
GPGPU-Sim PTX: 38900000 instructions simulated : ctaid=(89,0,0) tid=(127,0,0)
GPGPU-Sim PTX: 39000000 instructions simulated : ctaid=(72,0,0) tid=(95,0,0)
GPGPU-Sim uArch: cycles simulated: 69500  inst.: 39026016 (ipc=561.5) sim_rate=333555 (inst/sec) elapsed = 0:0:01:57 / Tue Apr 16 16:50:43 2019
GPGPU-Sim PTX: 39100000 instructions simulated : ctaid=(59,0,0) tid=(127,0,0)
GPGPU-Sim PTX: 39200000 instructions simulated : ctaid=(93,0,0) tid=(127,0,0)
GPGPU-Sim PTX: 39300000 instructions simulated : ctaid=(74,0,0) tid=(31,0,0)
GPGPU-Sim uArch: cycles simulated: 70000  inst.: 39290400 (ipc=561.3) sim_rate=332969 (inst/sec) elapsed = 0:0:01:58 / Tue Apr 16 16:50:44 2019
GPGPU-Sim PTX: 39400000 instructions simulated : ctaid=(127,0,0) tid=(63,0,0)
GPGPU-Sim PTX: 39500000 instructions simulated : ctaid=(101,0,0) tid=(31,0,0)
GPGPU-Sim PTX: 39600000 instructions simulated : ctaid=(127,0,0) tid=(95,0,0)
GPGPU-Sim uArch: cycles simulated: 70500  inst.: 39591200 (ipc=561.6) sim_rate=332699 (inst/sec) elapsed = 0:0:01:59 / Tue Apr 16 16:50:45 2019
GPGPU-Sim uArch: Shader 13 finished CTA #3 (70602,0), 7 CTAs running
GPGPU-Sim uArch: core: 13, cta: 3 initialized @(70603,0)
GPGPU-Sim PTX: 39700000 instructions simulated : ctaid=(102,0,0) tid=(127,0,0)
GPGPU-Sim PTX: 39800000 instructions simulated : ctaid=(121,0,0) tid=(63,0,0)
GPGPU-Sim uArch: Shader 1 finished CTA #3 (70925,0), 7 CTAs running
[...]
max_icnt2mem_latency = 644 
max_icnt2sh_latency = 351188 
mrq_lat_table:130700 	4710 	6088 	13342 	46431 	71114 	92126 	60539 	12133 	326 	0 	0 	0 	0 	0 	0 	0 	0 	0 	0 	0 	0 	0 	0 	0 	0 	0 	0 	0 	0 	0 	0 	
dq_lat_table:0 	0 	0 	0 	0 	0 	0 	0 	0 	0 	0 	0 	0 	0 	0 	0 	0 	0 	0 	0 	0 	0 	0 	0 	0 	0 	0 	0 	0 	0 	0 	0 	
mf_lat_table:0 	0 	0 	0 	0 	0 	0 	145 	255867 	56232 	271 	0 	0 	0 	0 	0 	0 	0 	0 	0 	0 	0 	0 	0 	0 	0 	0 	0 	0 	0 	0 	0 	
icnt2mem_lat_table:0 	0 	0 	59289 	85959 	139362 	26205 	1675 	99 	46 	0 	0 	0 	0 	0 	0 	0 	0 	0 	0 	0 	0 	0 	0 	
icnt2sh_lat_table:0 	0 	0 	115821 	64607 	6925 	162 	0 	0 	0 	0 	152 	1478 	3105 	6081 	12133 	24350 	48862 	28839 	0 	0 	0 	0 	0 	
mf_lat_pw_table:0 	0 	0 	0 	0 	0 	0 	0 	697 	3 	0 	0 	0 	0 	0 	0 	0 	0 	0 	0 	0 	0 	0 	0 	0 	0 	0 	0 	0 	0 	0 	0 	
maximum concurrent accesses to same row:
dram[0]:        28        27        14        14        28        20        32        32        18        14        28        30        32        30        14        18 
dram[1]:        23        26        20        14        20        20        38        32        18        16        24        22        32        30        20        18 
dram[2]:        27        27        20        16        22        30        38        34        18        18        32        24        32        30        20        32 
dram[3]:        26        26        14        14        20        24        34        34        10        10        30        28        32        30        14        14 
dram[4]:        27        27        14        14        26        28        36        34        22        24        30        38        30        30        20        16 
dram[5]:        26        26        14        14        24        24        32        32        12        16        28        28        30        30        14        16 
maximum service time to same row:
dram[0]:      3049      3260      4793      5216      3756      2340      2408      2343      5469      4496      2527      2544      2665      2622      5706      4652 
dram[1]:      2366      3200      3909      5794      3774      2376      2404      2382      5650      4378      2507      2624      2596      3203      5735      4588 
dram[2]:      1704      3399      4491      5363      2358      4380      2391      2430      4273      4285      2603      2641      3264      3016      4535      4573 
dram[3]:      2300      3307      3902      3887      3053      2352      2481      2408      3906      4131      2637      2547      3459      3374      4644      4458 
dram[4]:      3236      3436      6704      4418      2338      2353      2360      2377      5023      4078      4144      4072      3209      3455      4644      4645 
dram[5]:      3183      3283      4318      4376      3262      3774      2414      2440      4728      4125      2967      2643      3206      3577      4569      4564 
average row accesses per activate:
dram[0]:  1.542148  1.547814  1.521754  1.540984  1.562759  1.550462  1.568735  1.581203  1.527370  1.528901  1.572509  1.559646  1.557522  1.553293  1.544381  1.556463 
dram[1]:  1.536065  1.517750  1.499501  1.519704  1.528499  1.535751  1.555933  1.553820  1.511728  1.511229  1.543860  1.553820  1.540741  1.544381  1.524825  1.539704 
dram[2]:  1.564677  1.551523  1.537308  1.532609  1.547814  1.547067  1.579565  1.576844  1.522795  1.544381  1.575758  1.567123  1.552239  1.551186  1.556992  1.546991 
dram[3]:  1.530364  1.531599  1.512571  1.513586  1.523874  1.527273  1.555933  1.542819  1.493473  1.518752  1.543339  1.523810  1.527880  1.538669  1.524825  1.520771 
dram[4]:  1.550616  1.557924  1.511558  1.532088  1.549402  1.565758  1.562842  1.575758  1.517241  1.550661  1.559646  1.567123  1.551712  1.564444  1.555933  1.558583 
dram[5]:  1.519437  1.525412  1.500000  1.508526  1.525412  1.532950  1.545424  1.556463  1.520771  1.520771  1.539186  1.541260  1.532485  1.524825  1.517241  1.534541 
average row locality = 437509/284032 = 1.540351
number of total memory accesses made:
dram[0]:         0         0         0         0         0         0         0         0         0         0         0         0         0         0         0         0 
dram[1]:         0         0         0         0         0         0         0         0         0         0         0         0         0         0         0         0 
dram[2]:         0         0         0         0         0         0         0         0         0         0         0         0         0         0         0         0 
dram[3]:         0         0         0         0         0         0         0         0         0         0         0         0         0         0         0         0 
dram[4]:         0         0         0         0         0         0         0         0         0         0         0         0         0         0         0         0 
dram[5]:         0         0         0         0         0         0         0         0         0         0         0         0         0         0         0         0 
total accesses: 0
min_bank_accesses = 0!
min_chip_accesses = 0!
number of total read accesses:
dram[0]:      3251      3246      3232      3232      3242      3242      3264      3264      3264      3264      3264      3264      3264      3264      3264      3264 
dram[1]:      3250      3246      3232      3232      3242      3242      3264      3264      3264      3264      3264      3264      3264      3264      3264      3264 
dram[2]:      3250      3246      3232      3232      3242      3244      3264      3264      3264      3264      3264      3264      3264      3264      3264      3264 
dram[3]:      3250      3246      3232      3232      3242      3244      3264      3264      3264      3264      3264      3264      3264      3264      3264      3264 
dram[4]:      3248      3246      3232      3232      3242      3244      3264      3264      3264      3264      3264      3264      3264      3264      3264      3264 
dram[5]:      3248      3246      3232      3232      3242      3244      3264      3264      3264      3264      3264      3264      3264      3264      3264      3264 
total reads: 312509
bank skew: 3264/3232 = 1.01
chip skew: 52086/52084 = 1.00
number of total write accesses:
dram[0]:      1286      1286      1280      1280      1290      1290      1312      1312      1312      1312      1312      1312      1312      1312      1312      1312 
dram[1]:      1286      1286      1280      1280      1290      1290      1312      1312      1312      1312      1312      1312      1312      1312      1312      1312 
dram[2]:      1286      1286      1280      1280      1290      1292      1312      1312      1312      1312      1312      1312      1312      1312      1312      1312 
dram[3]:      1286      1286      1280      1280      1290      1292      1312      1312      1312      1312      1312      1312      1312      1312      1312      1312 
dram[4]:      1286      1286      1280      1280      1290      1292      1312      1312      1312      1312      1312      1312      1312      1312      1312      1312 
dram[5]:      1286      1286      1280      1280      1290      1292      1312      1312      1312      1312      1312      1312      1312      1312      1312      1312 
total reads: 125000
bank skew: 1312/1280 = 1.02
chip skew: 20834/20832 = 1.00
average mf latency per bank:
dram[0]:        299       298       302       306       304       311       318       317       296       302       302       307       308       316       314       321
dram[1]:        294       296       298       301       300       303       302       313       292       298       298       297       299       302       309       315
dram[2]:        307       307       312       311       309       322       321       323       305       308       308       313       316       320       319       327
dram[3]:        280       282       284       292       292       292       299       299       283       285       286       289       290       293       298       305
dram[4]:        297       301       302       307       307       313       309       318       296       309       303       312       307       313       318       320
dram[5]:        294       298       300       303       302       308       311       316       299       303       299       303       303       308       312       320
maximum mf latency per bank:
dram[0]:        986      1016       939       988      1047      1027      1026      1115       789       876      1055      1267      1095      1087      1029      1111
dram[1]:        898       864       907       945      1104       963      1060      1016      1038      1029      1035       988       817       918      1135      1049
dram[2]:       1187      1081      1222      1021      1117      1204      1196      1103       950      1110      1361      1120      1160      1160      1194      1064
dram[3]:        997       848       990      1013       958      1049       989       928       919       861      1254      1032      1035       979       936      1039
dram[4]:       1135      1205       899      1169      1240      1194      1139      1191       954      1585      1126      1525      1133      1000       923      1095
dram[5]:       1034       941       819       902      1243      1019      1021      1002       930       988      1111      1135      1064      1051       973      1058

Number of Memory Banks Accessed per Memory Operation per Warp (from 0):
0	0	0	0	0	0	0	0	0	0	0	0	0	0	0	0	0	0	0	0	0	0	0	0	0	0	0	0	0	0	0	0	0	0	0	0	0	0	0	0	0	0	0	0	0	0	0	0	0	0	0	0	0	0	0	0	0	0	0	0	0	0	0	0	0	0	0	0	0	0	0	0	0	0	0	0	0	0	0	0	0	0	0	0	0	0	0	0	0	0	0	0	0	0	0	0	
Average # of Memory Banks Accessed per Memory Operation per Warp=-nan

position of mrq chosen
0	0	0	0	0	0	0	0	0	0	0	0	0	0	0	0	

average position of mrq chosen = -nan
Memory Partition 0: 
Cache L2_bank_000:
MSHR contents

Cache L2_bank_001:
MSHR contents

In Dram Latency Queue (total = 0): 
DRAM[0]: 16 bks, busW=4 BL=8 CL=12, tRRD=2 tCCD=6, tRCD=12 tRAS=28 tRP=12 tRC=40
n_cmd=463569 n_nop=223717 n_act=47017 n_pre=47001 n_req=72917 n_rd=104170 n_write=41664 bw_util=0.6292
n_activity=451686 dram_eff=0.6457
bk0: 6502a 229549i bk1: 6492a 227654i bk2: 6464a 217416i bk3: 6464a 211881i bk4: 6484a 210755i bk5: 6484a 203026i bk6: 6528a 192649i bk7: 6528a 188309i bk8: 6528a 225422i bk9: 6528a 217326i bk10: 6528a 217179i bk11: 6528a 209535i bk12: 6528a 204892i bk13: 6528a 195940i bk14: 6528a 187268i bk15: 6528a 181162i 
dram_util_bins: 0 0 0 0 0 0 0 0 0 0
dram_eff_bins: 0 0 0 0 0 0 0 0 0 0
mrqq: max=16 avg=13.2184
Memory Partition 1: 
Cache L2_bank_002:
MSHR contents

Cache L2_bank_003:
MSHR contents
MSHR: tag=0x80f20f80, atomic=0 1 entries : 0x7f04b8f6e8f0 :  mf: uid=7808098, sid14:w31, part=1, addr=0x80f20f80, load , size=128, unknown  status = IN_PARTITION_DRAM (351186), 

In Dram Latency Queue (total = 0): 
DRAM[1]: 16 bks, busW=4 BL=8 CL=12, tRRD=2 tCCD=6, tRCD=12 tRAS=28 tRP=12 tRC=40
n_cmd=463569 n_nop=222575 n_act=47589 n_pre=47573 n_req=72916 n_rd=104168 n_write=41664 bw_util=0.6292
n_activity=454076 dram_eff=0.6423
bk0: 6500a 230879i bk1: 6492a 225803i bk2: 6464a 219142i bk3: 6464a 212838i bk4: 6484a 210947i bk5: 6484a 203562i bk6: 6528a 196252i bk7: 6528a 187415i bk8: 6528a 227073i bk9: 6528a 218987i bk10: 6528a 220068i bk11: 6528a 215369i bk12: 6528a 208464i bk13: 6528a 201366i bk14: 6528a 188522i bk15: 6528a 181756i 
dram_util_bins: 0 0 0 0 0 0 0 0 0 0
dram_eff_bins: 0 0 0 0 0 0 0 0 0 0
mrqq: max=16 avg=12.7984
Memory Partition 2: 
Cache L2_bank_004:
MSHR contents

Cache L2_bank_005:
MSHR contents

In Dram Latency Queue (total = 0): 
DRAM[2]: 16 bks, busW=4 BL=8 CL=12, tRRD=2 tCCD=6, tRCD=12 tRAS=28 tRP=12 tRC=40
n_cmd=463569 n_nop=223855 n_act=46945 n_pre=46929 n_req=72920 n_rd=104172 n_write=41668 bw_util=0.6292
n_activity=451358 dram_eff=0.6462
bk0: 6500a 231168i bk1: 6492a 223910i bk2: 6464a 215036i bk3: 6464a 214281i bk4: 6484a 209935i bk5: 6488a 199619i bk6: 6528a 195840i bk7: 6528a 182516i bk8: 6528a 224146i bk9: 6528a 221693i bk10: 6528a 217595i bk11: 6528a 213408i bk12: 6528a 204762i bk13: 6528a 195911i bk14: 6528a 193006i bk15: 6528a 185363i 
dram_util_bins: 0 0 0 0 0 0 0 0 0 0
dram_eff_bins: 0 0 0 0 0 0 0 0 0 0
mrqq: max=16 avg=13.3995
Memory Partition 3: 
Cache L2_bank_006:
MSHR contents

Cache L2_bank_007:
MSHR contents

In Dram Latency Queue (total = 0): 
DRAM[3]: 16 bks, busW=4 BL=8 CL=12, tRRD=2 tCCD=6, tRCD=12 tRAS=28 tRP=12 tRC=40
n_cmd=463569 n_nop=222221 n_act=47762 n_pre=47746 n_req=72920 n_rd=104172 n_write=41668 bw_util=0.6292
n_activity=454090 dram_eff=0.6423
bk0: 6500a 236905i bk1: 6492a 228720i bk2: 6464a 222008i bk3: 6464a 215364i bk4: 6484a 213472i bk5: 6488a 204658i bk6: 6528a 197615i bk7: 6528a 189655i bk8: 6528a 226197i bk9: 6528a 223630i bk10: 6528a 220164i bk11: 6528a 211464i bk12: 6528a 205579i bk13: 6528a 201079i bk14: 6528a 192900i bk15: 6528a 183807i 
dram_util_bins: 0 0 0 0 0 0 0 0 0 0
dram_eff_bins: 0 0 0 0 0 0 0 0 0 0
mrqq: max=16 avg=12.4912
Memory Partition 4: 
Cache L2_bank_008:
MSHR contents

Cache L2_bank_009:
MSHR contents

In Dram Latency Queue (total = 0): 
DRAM[4]: 16 bks, busW=4 BL=8 CL=12, tRRD=2 tCCD=6, tRCD=12 tRAS=28 tRP=12 tRC=40
n_cmd=463569 n_nop=223771 n_act=46989 n_pre=46973 n_req=72918 n_rd=104168 n_write=41668 bw_util=0.6292
n_activity=450815 dram_eff=0.647
bk0: 6496a 229722i bk1: 6492a 224910i bk2: 6464a 218875i bk3: 6464a 212891i bk4: 6484a 207016i bk5: 6488a 202165i bk6: 6528a 195614i bk7: 6528a 184834i bk8: 6528a 226986i bk9: 6528a 216776i bk10: 6528a 217494i bk11: 6528a 210530i bk12: 6528a 206039i bk13: 6528a 194974i bk14: 6528a 189663i bk15: 6528a 184319i 
dram_util_bins: 0 0 0 0 0 0 0 0 0 0
dram_eff_bins: 0 0 0 0 0 0 0 0 0 0
mrqq: max=16 avg=13.1878
Memory Partition 5: 
Cache L2_bank_010:
MSHR contents

Cache L2_bank_011:
MSHR contents

In Dram Latency Queue (total = 0): 
DRAM[5]: 16 bks, busW=4 BL=8 CL=12, tRRD=2 tCCD=6, tRCD=12 tRAS=28 tRP=12 tRC=40
n_cmd=463569 n_nop=222289 n_act=47730 n_pre=47714 n_req=72918 n_rd=104168 n_write=41668 bw_util=0.6292
n_activity=454255 dram_eff=0.6421
bk0: 6496a 231454i bk1: 6492a 225365i bk2: 6464a 219818i bk3: 6464a 214314i bk4: 6484a 211060i bk5: 6488a 201843i bk6: 6528a 194977i bk7: 6528a 187754i bk8: 6528a 223270i bk9: 6528a 218674i bk10: 6528a 216736i bk11: 6528a 212338i bk12: 6528a 204636i bk13: 6528a 198023i bk14: 6528a 189539i bk15: 6528a 179637i 
dram_util_bins: 0 0 0 0 0 0 0 0 0 0
dram_eff_bins: 0 0 0 0 0 0 0 0 0 0
mrqq: max=16 avg=13.0744

========= L2 cache stats =========
L2_cache_bank[0]: Access = 26087, Miss = 26045, Miss_rate = 0.998, Pending_hits = 9, Reservation_fails = 3674
L2_cache_bank[1]: Access = 26040, Miss = 26040, Miss_rate = 1.000, Pending_hits = 0, Reservation_fails = 5209
L2_cache_bank[2]: Access = 26072, Miss = 26044, Miss_rate = 0.999, Pending_hits = 6, Reservation_fails = 3368
L2_cache_bank[3]: Access = 26040, Miss = 26040, Miss_rate = 1.000, Pending_hits = 0, Reservation_fails = 4626
L2_cache_bank[4]: Access = 26072, Miss = 26044, Miss_rate = 0.999, Pending_hits = 6, Reservation_fails = 6821
L2_cache_bank[5]: Access = 26042, Miss = 26042, Miss_rate = 1.000, Pending_hits = 0, Reservation_fails = 6809
L2_cache_bank[6]: Access = 26072, Miss = 26044, Miss_rate = 0.999, Pending_hits = 6, Reservation_fails = 1688
L2_cache_bank[7]: Access = 26042, Miss = 26042, Miss_rate = 1.000, Pending_hits = 0, Reservation_fails = 1690
L2_cache_bank[8]: Access = 26042, Miss = 26042, Miss_rate = 1.000, Pending_hits = 0, Reservation_fails = 3772
L2_cache_bank[9]: Access = 26042, Miss = 26042, Miss_rate = 1.000, Pending_hits = 0, Reservation_fails = 7791
L2_cache_bank[10]: Access = 26042, Miss = 26042, Miss_rate = 1.000, Pending_hits = 0, Reservation_fails = 2551
L2_cache_bank[11]: Access = 26042, Miss = 26042, Miss_rate = 1.000, Pending_hits = 0, Reservation_fails = 3024
L2_total_cache_accesses = 312635
L2_total_cache_misses = 312509
L2_total_cache_miss_rate = 0.9996
L2_total_cache_pending_hits = 27
L2_total_cache_reservation_fails = 51023
L2_total_cache_breakdown:
	L2_cache_stats_breakdown[GLOBAL_ACC_R][MISS] = 187500
	L2_cache_stats_breakdown[GLOBAL_ACC_R][RESERVATION_FAIL] = 32011
	L2_cache_stats_breakdown[CONST_ACC_R][HIT] = 11
	L2_cache_stats_breakdown[CONST_ACC_R][HIT_RESERVED] = 3
	L2_cache_stats_breakdown[CONST_ACC_R][MISS] = 1
	L2_cache_stats_breakdown[CONST_ACC_R][RESERVATION_FAIL] = 109
	L2_cache_stats_breakdown[GLOBAL_ACC_W][MISS] = 125000
	L2_cache_stats_breakdown[GLOBAL_ACC_W][RESERVATION_FAIL] = 18098
	L2_cache_stats_breakdown[INST_ACC_R][HIT] = 88
	L2_cache_stats_breakdown[INST_ACC_R][HIT_RESERVED] = 24
	L2_cache_stats_breakdown[INST_ACC_R][MISS] = 8
	L2_cache_stats_breakdown[INST_ACC_R][RESERVATION_FAIL] = 805
L2_cache_data_port_util = 0.000
L2_cache_fill_port_util = 0.297

icnt_total_pkts_mem_to_simt=1063145
icnt_total_pkts_simt_to_mem=812635
LD_mem_lat_dist  0 0 0 0 0 0 0 0 0 0 0 0 0 0 0 0 0 0 0 0 0 0 0 0 0 0 0
ST_mem_lat_dist  0 0 0 0 0 0 0 0 0 0 0 0 0 0 0 0 0 0 0 0 0 0 0 0 0 0 0
----------------------------Interconnect-DETAILS--------------------------------
Class 0:
Packet latency average = 17.8492
	minimum = 6
	maximum = 521
Network latency average = 13.8919
	minimum = 6
	maximum = 506
Slowest packet = 4165
Flit latency average = 10.9079
	minimum = 6
	maximum = 506
Slowest flit = 12487
Fragmentation average = 0.0124346
	minimum = 0
	maximum = 227
Injected packet rate average = 0.0659421
	minimum = 0.0575445 (at node 6)
	maximum = 0.0742819 (at node 15)
Accepted packet rate average = 0.0659421
	minimum = 0.0575445 (at node 6)
	maximum = 0.0742819 (at node 15)
Injected flit rate average = 0.197823
	minimum = 0.149575 (at node 6)
	maximum = 0.252687 (at node 15)
Accepted flit rate average= 0.197823
	minimum = 0.192785 (at node 16)
	maximum = 0.208079 (at node 1)
Injected packet length average = 2.99995
Accepted packet length average = 2.99995
Total in-flight flits = 0 (0 measured)
====== Overall Traffic Statistics ======
====== Traffic class 0 ======
Packet latency average = 17.8492 (1 samples)
	minimum = 6 (1 samples)
	maximum = 521 (1 samples)
Network latency average = 13.8919 (1 samples)
	minimum = 6 (1 samples)
	maximum = 506 (1 samples)
Flit latency average = 10.9079 (1 samples)
	minimum = 6 (1 samples)
	maximum = 506 (1 samples)
Fragmentation average = 0.0124346 (1 samples)
	minimum = 0 (1 samples)
	maximum = 227 (1 samples)
Injected packet rate average = 0.0659421 (1 samples)
	minimum = 0.0575445 (1 samples)
	maximum = 0.0742819 (1 samples)
Accepted packet rate average = 0.0659421 (1 samples)
	minimum = 0.0575445 (1 samples)
	maximum = 0.0742819 (1 samples)
Injected flit rate average = 0.197823 (1 samples)
	minimum = 0.149575 (1 samples)
	maximum = 0.252687 (1 samples)
Accepted flit rate average = 0.197823 (1 samples)
	minimum = 0.192785 (1 samples)
	maximum = 0.208079 (1 samples)
Injected packet size average = 2.99995 (1 samples)
Accepted packet size average = 2.99995 (1 samples)
Hops average = 1 (1 samples)
----------------------------END-of-Interconnect-DETAILS-------------------------


gpgpu_simulation_time = 0 days, 0 hrs, 9 min, 20 sec (560 sec)
gpgpu_simulation_rate = 349610 (inst/sec)
gpgpu_simulation_rate = 627 (cycle/sec)
GPGPU-Sim: synchronize waiting for inactive GPU simulation
GPGPU-Sim API: Stream Manager State
GPGPU-Sim: detected inactive GPU simulation thread
Options count             : 4000000     
BlackScholesGPU() time    : 557621.687500 msec
Effective memory bandwidth: 0.000072 GB/s
Gigaoptions per second    : 0.000007     
Reading back GPU results...
Checking the results...
...running CPU calculations.
Comparing the results...
L1 norm: 1.729535E-07
Max absolute error: 1.192093E-05
TEST PASSED
Shutting down...
...releasing GPU memory.
...releasing CPU memory.
Shutdown done.
GPGPU-Sim: exit_simulation called
GPGPU-Sim: simulation thread signaled exit

Press ENTER to exit...
