

        *** GPGPU-Sim Simulator Version 3.2.2  [build 0] ***


GPGPU-Sim PTX: simulation mode 0 (can change with PTX_SIM_MODE_FUNC environment variable:
               1=functional simulation only, 0=detailed performance simulator)
GPGPU-Sim: Configuration options:

-network_mode                           1 # Interconnection network mode
-inter_config_file   config_fermi_islip.icnt # Interconnection network config file
-gpgpu_ptx_use_cuobjdump                    1 # Use cuobjdump to extract ptx and sass from binaries
-gpgpu_experimental_lib_support                    0 # Try to extract code from cuda libraries [Broken because of unknown cudaGetExportTable]
-gpgpu_ptx_convert_to_ptxplus                    0 # Convert SASS (native ISA) to ptxplus and run ptxplus
-gpgpu_ptx_force_max_capability                   20 # Force maximum compute capability
-gpgpu_ptx_inst_debug_to_file                    0 # Dump executed instructions' debug information to file
-gpgpu_ptx_inst_debug_file       inst_debug.txt # Executed instructions' debug output file
-gpgpu_ptx_inst_debug_thread_uid                    1 # Thread UID for executed instructions' debug output
-gpgpu_simd_model                       1 # 1 = post-dominator
-gpgpu_shader_core_pipeline              1536:32 # shader core pipeline config, i.e., {<nthread>:<warpsize>}
-gpgpu_tex_cache:l1  4:128:24,L:R:m:N:L,F:128:4,128:2 # per-shader L1 texture cache  (READ-ONLY) config  {<nsets>:<bsize>:<assoc>,<rep>:<wr>:<alloc>:<wr_alloc>,<mshr>:<N>:<merge>,<mq>:<rf>}
-gpgpu_const_cache:l1 64:64:2,L:R:f:N:L,A:2:32,4 # per-shader L1 constant memory cache  (READ-ONLY) config  {<nsets>:<bsize>:<assoc>,<rep>:<wr>:<alloc>:<wr_alloc>,<mshr>:<N>:<merge>,<mq>} 
-gpgpu_cache:il1     4:128:4,L:R:f:N:L,A:2:32,4 # shader L1 instruction cache config  {<nsets>:<bsize>:<assoc>,<rep>:<wr>:<alloc>:<wr_alloc>,<mshr>:<N>:<merge>,<mq>} 
-gpgpu_cache:dl1     64:128:16,L:L:m:N:H,A:32:8,8 # per-shader L1 data cache config  {<nsets>:<bsize>:<assoc>,<rep>:<wr>:<alloc>:<wr_alloc>,<mshr>:<N>:<merge>,<mq> | none}
-gpgpu_cache:dl1PrefL1                 none # per-shader L1 data cache config  {<nsets>:<bsize>:<assoc>,<rep>:<wr>:<alloc>:<wr_alloc>,<mshr>:<N>:<merge>,<mq> | none}
-gpgpu_cache:dl1PreShared                 none # per-shader L1 data cache config  {<nsets>:<bsize>:<assoc>,<rep>:<wr>:<alloc>:<wr_alloc>,<mshr>:<N>:<merge>,<mq> | none}
-gmem_skip_L1D                          0 # global memory access skip L1D cache (implements -Xptxas -dlcm=cg, default=no skip)
-gpgpu_perfect_mem                      0 # enable perfect memory mode (no cache miss)
-n_regfile_gating_group                    4 # group of lanes that should be read/written together)
-gpgpu_clock_gated_reg_file                    0 # enable clock gated reg file for power calculations
-gpgpu_clock_gated_lanes                    0 # enable clock gated lanes for power calculations
-gpgpu_shader_registers                32768 # Number of registers per shader core. Limits number of concurrent CTAs. (default 8192)
-gpgpu_shader_cta                       8 # Maximum number of concurrent CTAs in shader (default 8)
-gpgpu_num_cta_barriers                   16 # Maximum number of named barriers per CTA (default 16)
-gpgpu_n_clusters                      15 # number of processing clusters
-gpgpu_n_cores_per_cluster                    1 # number of simd cores per cluster
-gpgpu_n_cluster_ejection_buffer_size                    8 # number of packets in ejection buffer
-gpgpu_n_ldst_response_buffer_size                    2 # number of response packets in ld/st unit ejection buffer
-gpgpu_shmem_size                   16384 # Size of shared memory per shader core (default 16kB)
-gpgpu_shmem_size                   49152 # Size of shared memory per shader core (default 16kB)
-gpgpu_shmem_size_PrefL1                16384 # Size of shared memory per shader core (default 16kB)
-gpgpu_shmem_size_PrefShared                16384 # Size of shared memory per shader core (default 16kB)
-gpgpu_shmem_num_banks                   32 # Number of banks in the shared memory in each shader core (default 16)
-gpgpu_shmem_limited_broadcast                    0 # Limit shared memory to do one broadcast per cycle (default on)
-gpgpu_shmem_warp_parts                    1 # Number of portions a warp is divided into for shared memory bank conflict check 
-gpgpu_warpdistro_shader                   -1 # Specify which shader core to collect the warp size distribution from
-gpgpu_warp_issue_shader                    0 # Specify which shader core to collect the warp issue distribution from
-gpgpu_local_mem_map                    1 # Mapping from local memory space address to simulated GPU physical address space (default = enabled)
-gpgpu_num_reg_banks                   16 # Number of register banks (default = 8)
-gpgpu_reg_bank_use_warp_id                    0 # Use warp ID in mapping registers to banks (default = off)
-gpgpu_operand_collector_num_units_sp                    6 # number of collector units (default = 4)
-gpgpu_operand_collector_num_units_sfu                    8 # number of collector units (default = 4)
-gpgpu_operand_collector_num_units_mem                    2 # number of collector units (default = 2)
-gpgpu_operand_collector_num_units_gen                    0 # number of collector units (default = 0)
-gpgpu_operand_collector_num_in_ports_sp                    2 # number of collector unit in ports (default = 1)
-gpgpu_operand_collector_num_in_ports_sfu                    1 # number of collector unit in ports (default = 1)
-gpgpu_operand_collector_num_in_ports_mem                    1 # number of collector unit in ports (default = 1)
-gpgpu_operand_collector_num_in_ports_gen                    0 # number of collector unit in ports (default = 0)
-gpgpu_operand_collector_num_out_ports_sp                    2 # number of collector unit in ports (default = 1)
-gpgpu_operand_collector_num_out_ports_sfu                    1 # number of collector unit in ports (default = 1)
-gpgpu_operand_collector_num_out_ports_mem                    1 # number of collector unit in ports (default = 1)
-gpgpu_operand_collector_num_out_ports_gen                    0 # number of collector unit in ports (default = 0)
-gpgpu_coalesce_arch                   13 # Coalescing arch (default = 13, anything else is off for now)
-gpgpu_num_sched_per_core                    2 # Number of warp schedulers per core
-gpgpu_max_insn_issue_per_warp                    1 # Max number of instructions that can be issued per warp in one cycle by scheduler
-gpgpu_simt_core_sim_order                    1 # Select the simulation order of cores in a cluster (0=Fix, 1=Round-Robin)
-gpgpu_pipeline_widths        2,1,1,2,1,1,2 # Pipeline widths ID_OC_SP,ID_OC_SFU,ID_OC_MEM,OC_EX_SP,OC_EX_SFU,OC_EX_MEM,EX_WB
-gpgpu_num_sp_units                     2 # Number of SP units (default=1)
-gpgpu_num_sfu_units                    1 # Number of SF units (default=1)
-gpgpu_num_mem_units                    1 # Number if ldst units (default=1) WARNING: not hooked up to anything
-gpgpu_scheduler                      gto # Scheduler configuration: < lrr | gto | two_level_active > If two_level_active:<num_active_warps>:<inner_prioritization>:<outer_prioritization>For complete list of prioritization values see shader.h enum scheduler_prioritization_typeDefault: gto
-gpgpu_dram_scheduler                    1 # 0 = fifo, 1 = FR-FCFS (defaul)
-gpgpu_dram_partition_queues              8:8:8:8 # i2$:$2d:d2$:$2i
-l2_ideal                               0 # Use a ideal L2 cache that always hit
-gpgpu_cache:dl2     64:128:8,L:B:m:W:L,A:32:4,4:0,32 # unified banked L2 data cache config  {<nsets>:<bsize>:<assoc>,<rep>:<wr>:<alloc>:<wr_alloc>,<mshr>:<N>:<merge>,<mq>}
-gpgpu_cache:dl2_texture_only                    0 # L2 cache used for texture only
-gpgpu_n_mem                            6 # number of memory modules (e.g. memory controllers) in gpu
-gpgpu_n_sub_partition_per_mchannel                    2 # number of memory subpartition in each memory module
-gpgpu_n_mem_per_ctrlr                    2 # number of memory chips per memory controller
-gpgpu_memlatency_stat                   14 # track and display latency statistics 0x2 enables MC, 0x4 enables queue logs
-gpgpu_frfcfs_dram_sched_queue_size                   16 # 0 = unlimited (default); # entries per chip
-gpgpu_dram_return_queue_size                  116 # 0 = unlimited (default); # entries per chip
-gpgpu_dram_buswidth                    4 # default = 4 bytes (8 bytes per cycle at DDR)
-gpgpu_dram_burst_length                    8 # Burst length of each DRAM request (default = 4 data bus cycle)
-dram_data_command_freq_ratio                    4 # Frequency ratio between DRAM data bus and command bus (default = 2 times, i.e. DDR)
-gpgpu_dram_timing_opt nbk=16:CCD=2:RRD=6:RCD=12:RAS=28:RP=12:RC=40: CL=12:WL=4:CDLR=5:WR=12:nbkgrp=4:CCDL=3:RTPL=2 # DRAM timing parameters = {nbk:tCCD:tRRD:tRCD:tRAS:tRP:tRC:CL:WL:tCDLR:tWR:nbkgrp:tCCDL:tRTPL}
-rop_latency                          120 # ROP queue latency (default 85)
-dram_latency                         100 # DRAM latency (default 30)
-gpgpu_mem_addr_mapping dramid@8;00000000.00000000.00000000.00000000.0000RRRR.RRRRRRRR.BBBCCCCB.CCSSSSSS # mapping memory address to dram model {dramid@<start bit>;<memory address map>}
-gpgpu_mem_addr_test                    0 # run sweep test to check address mapping for aliased address
-gpgpu_mem_address_mask                    1 # 0 = old addressing mask, 1 = new addressing mask, 2 = new add. mask + flipped bank sel and chip sel bits
-gpuwattch_xml_file  gpuwattch_gtx480.xml # GPUWattch XML file
-power_simulation_enabled                    1 # Turn on power simulator (1=On, 0=Off)
-power_per_cycle_dump                    0 # Dump detailed power output each cycle
-power_trace_enabled                    0 # produce a file for the power trace (1=On, 0=Off)
-power_trace_zlevel                     6 # Compression level of the power trace output log (0=no comp, 9=highest)
-steady_power_levels_enabled                    0 # produce a file for the steady power levels (1=On, 0=Off)
-steady_state_definition                  8:4 # allowed deviation:number of samples
-gpgpu_max_cycle                        0 # terminates gpu simulation early (0 = no limit)
-gpgpu_max_insn                         0 # terminates gpu simulation early (0 = no limit)
-gpgpu_max_cta                          0 # terminates gpu simulation early (0 = no limit)
-gpgpu_runtime_stat                   500 # display runtime statistics such as dram utilization {<freq>:<flag>}
-liveness_message_freq                    1 # Minimum number of seconds between simulation liveness messages (0 = always print)
-gpgpu_flush_l1_cache                    0 # Flush L1 cache at the end of each kernel call
-gpgpu_flush_l2_cache                    0 # Flush L2 cache at the end of each kernel call
-gpgpu_deadlock_detect                    1 # Stop the simulation at deadlock (1=on (default), 0=off)
-gpgpu_ptx_instruction_classification                    0 # if enabled will classify ptx instruction types per kernel (Max 255 kernels now)
-gpgpu_ptx_sim_mode                     0 # Select between Performance (default) or Functional simulation (1)
-gpgpu_clock_domains 700.0:700.0:700.0:924.0 # Clock Domain Frequencies in MhZ {<Core Clock>:<ICNT Clock>:<L2 Clock>:<DRAM Clock>}
-gpgpu_max_concurrent_kernel                    8 # maximum kernels that can run concurrently on GPU
-gpgpu_cflog_interval                    0 # Interval between each snapshot in control flow logger
-visualizer_enabled                     0 # Turn on visualizer output (1=On, 0=Off)
-visualizer_outputfile                 NULL # Specifies the output log file for visualizer
-visualizer_zlevel                      6 # Compression level of the visualizer output log (0=no comp, 9=highest)
-trace_enabled                          0 # Turn on traces
-trace_components                    none # comma seperated list of traces to enable. Complete list found in trace_streams.tup. Default none
-trace_sampling_core                    0 # The core which is printed using CORE_DPRINTF. Default 0
-trace_sampling_memory_partition                   -1 # The memory partition which is printed using MEMPART_DPRINTF. Default -1 (i.e. all)
-enable_ptx_file_line_stats                    1 # Turn on PTX source line statistic profiling. (1 = On)
-ptx_line_stats_filename gpgpu_inst_stats.txt # Output file for PTX source line statistics.
-save_embedded_ptx                      0 # saves ptx files embedded in binary as <n>.ptx
-keep                                   0 # keep intermediate files created by GPGPU-Sim when interfacing with external programs
-gpgpu_ptx_save_converted_ptxplus                    0 # Saved converted ptxplus to a file
-ptx_opcode_latency_int         4,13,4,5,145 # Opcode latencies for integers <ADD,MAX,MUL,MAD,DIV>Default 1,1,19,25,145
-ptx_opcode_latency_fp          4,13,4,5,39 # Opcode latencies for single precision floating points <ADD,MAX,MUL,MAD,DIV>Default 1,1,1,1,30
-ptx_opcode_latency_dp         8,19,8,8,330 # Opcode latencies for double precision floating points <ADD,MAX,MUL,MAD,DIV>Default 8,8,8,8,335
-ptx_opcode_initiation_int            1,2,2,1,8 # Opcode initiation intervals for integers <ADD,MAX,MUL,MAD,DIV>Default 1,1,4,4,32
-ptx_opcode_initiation_fp            1,2,1,1,4 # Opcode initiation intervals for single precision floating points <ADD,MAX,MUL,MAD,DIV>Default 1,1,1,1,5
-ptx_opcode_initiation_dp         8,16,8,8,130 # Opcode initiation intervals for double precision floating points <ADD,MAX,MUL,MAD,DIV>Default 8,8,8,8,130
DRAM Timing Options:
nbk                                    16 # number of banks
CCD                                     2 # column to column delay
RRD                                     6 # minimal delay between activation of rows in different banks
RCD                                    12 # row to column delay
RAS                                    28 # time needed to activate row
RP                                     12 # time needed to precharge (deactivate) row
RC                                     40 # row cycle time
CDLR                                    5 # switching from write to read (changes tWTR)
WR                                     12 # last data-in to row precharge
CL                                     12 # CAS latency
WL                                      4 # Write latency
nbkgrp                                  4 # number of bank groups
CCDL                                    3 # column to column delay between accesses to different bank groups
RTPL                                    2 # read to precharge delay between accesses to different bank groups
Total number of memory sub partition = 12
addr_dec_mask[CHIP]  = 0000000000000000 	high:64 low:0
addr_dec_mask[BK]    = 000000000000e100 	high:16 low:8
addr_dec_mask[ROW]   = 000000000fff0000 	high:28 low:16
addr_dec_mask[COL]   = 0000000000001eff 	high:13 low:0
addr_dec_mask[BURST] = 000000000000003f 	high:6 low:0
sub_partition_id_mask = 0000000000000100
GPGPU-Sim uArch: clock freqs: 700000000.000000:700000000.000000:700000000.000000:924000000.000000
GPGPU-Sim uArch: clock periods: 0.00000000142857142857:0.00000000142857142857:0.00000000142857142857:0.00000000108225108225
*** Initializing Memory Statistics ***
GPGPU-Sim uArch: interconnect node map (shaderID+MemID to icntID)
GPGPU-Sim uArch: Memory nodes ID start from index: 15
GPGPU-Sim uArch:    0   1   2   3   4
GPGPU-Sim uArch:    5   6   7   8   9
GPGPU-Sim uArch:   10  11  12  13  14
GPGPU-Sim uArch:   15  16  17  18  19
GPGPU-Sim uArch:   20  21  22  23  24
GPGPU-Sim uArch:   25  26
GPGPU-Sim uArch: interconnect node reverse map (icntID to shaderID+MemID)
GPGPU-Sim uArch: Memory nodes start from ID: 15
GPGPU-Sim uArch:    0   1   2   3   4
GPGPU-Sim uArch:    5   6   7   8   9
GPGPU-Sim uArch:   10  11  12  13  14
GPGPU-Sim uArch:   15  16  17  18  19
GPGPU-Sim uArch:   20  21  22  23  24
GPGPU-Sim uArch:   25  26
36bb1eeaa5c1ff7ca0ddea1af00eaab8  /home/scratch/adwait/applications/benchmarks/CUDA/NN/gpgpu_ptx_sim__NN
GPGPU-Sim uArch: performance model initialization complete.
GPGPU-Sim PTX: __cudaRegisterFatBinary, fat_cubin_handle = 1, filename=NN.cu
self exe links to: /home/scratch/adwait/applications/benchmarks/CUDA/NN/gpgpu_ptx_sim__NN
Running md5sum using "md5sum /home/scratch/adwait/applications/benchmarks/CUDA/NN/gpgpu_ptx_sim__NN "
Running cuobjdump using "$CUDA_INSTALL_PATH/bin/cuobjdump -ptx -elf -sass /home/scratch/adwait/applications/benchmarks/CUDA/NN/gpgpu_ptx_sim__NN > _cuobjdump_complete_output_oCpucd"
Parsing file _cuobjdump_complete_output_oCpucd
######### cuobjdump parser ########
## Adding new section ELF
Adding arch: sm_20
Adding identifier: NN.cu
## Adding new section PTX
Adding ptx filename: _cuobjdump_1.ptx
Adding arch: sm_20
Adding identifier: NN.cu
Done parsing!!!
GPGPU-Sim PTX: __cudaRegisterFunction _Z18executeFourthLayerPfS_S_ : hostFun 0x0x402a51, fat_cubin_handle = 1
GPGPU-Sim PTX: allocating constant region for "kernelTemplate" from 0x100 to 0x164 (global memory space) 1
GPGPU-Sim PTX: instruction assembly for function '_Z17executeFirstLayerPfS_S_'...   done.
GPGPU-Sim PTX: finding reconvergence points for '_Z17executeFirstLayerPfS_S_'...
GPGPU-Sim PTX: Finding dominators for '_Z17executeFirstLayerPfS_S_'...
GPGPU-Sim PTX: Finding immediate dominators for '_Z17executeFirstLayerPfS_S_'...
GPGPU-Sim PTX: Finding postdominators for '_Z17executeFirstLayerPfS_S_'...
GPGPU-Sim PTX: Finding immediate postdominators for '_Z17executeFirstLayerPfS_S_'...
GPGPU-Sim PTX: pre-decoding instructions for '_Z17executeFirstLayerPfS_S_'...
GPGPU-Sim PTX: reconvergence points for _Z17executeFirstLayerPfS_S_...
GPGPU-Sim PTX:  1 (potential) branch divergence @  PC=0x100 (_1.ptx:100) @%p1 bra $Lt_0_4098;
GPGPU-Sim PTX:    immediate post dominator      @  PC=0x108 (_1.ptx:102) cvt.f64.f32 %fd1, %f1;
GPGPU-Sim PTX:  2 (potential) branch divergence @  PC=0x148 (_1.ptx:110) @!%p2 bra $Lt_0_4866;
GPGPU-Sim PTX:    immediate post dominator      @  PC=0x2a8 (_1.ptx:162) cvt.f64.f32 %fd5, %f29;
GPGPU-Sim PTX:  3 (potential) branch divergence @  PC=0x230 (_1.ptx:142) bra.uni $Lt_0_4610;
GPGPU-Sim PTX:    immediate post dominator      @  PC=0x2a8 (_1.ptx:162) cvt.f64.f32 %fd5, %f29;
GPGPU-Sim PTX: ... end of reconvergence points for _Z17executeFirstLayerPfS_S_
GPGPU-Sim PTX: ... done pre-decoding instructions for '_Z17executeFirstLayerPfS_S_'.
GPGPU-Sim PTX: allocating constant region for "kernelTemplate2" from 0x180 to 0x1e4 (global memory space) 2
GPGPU-Sim PTX: instruction assembly for function '_Z18executeSecondLayerPfS_S_'...   done.
GPGPU-Sim PTX: finding reconvergence points for '_Z18executeSecondLayerPfS_S_'...
GPGPU-Sim PTX: Finding dominators for '_Z18executeSecondLayerPfS_S_'...
GPGPU-Sim PTX: Finding immediate dominators for '_Z18executeSecondLayerPfS_S_'...
GPGPU-Sim PTX: Finding postdominators for '_Z18executeSecondLayerPfS_S_'...
GPGPU-Sim PTX: Finding immediate postdominators for '_Z18executeSecondLayerPfS_S_'...
GPGPU-Sim PTX: pre-decoding instructions for '_Z18executeSecondLayerPfS_S_'...
GPGPU-Sim PTX: reconvergence points for _Z18executeSecondLayerPfS_S_...
GPGPU-Sim PTX:  1 (potential) branch divergence @  PC=0x4a0 (_1.ptx:251) @%p1 bra $Lt_1_5634;
GPGPU-Sim PTX:    immediate post dominator      @  PC=0x4a8 (_1.ptx:253) cvt.f64.f32 %fd1, %f1;
GPGPU-Sim PTX:  2 (potential) branch divergence @  PC=0x4e8 (_1.ptx:261) @!%p2 bra $Lt_1_6402;
GPGPU-Sim PTX:    immediate post dominator      @  PC=0x648 (_1.ptx:313) cvt.f64.f32 %fd5, %f44;
GPGPU-Sim PTX:  3 (potential) branch divergence @  PC=0x5d0 (_1.ptx:293) bra.uni $Lt_1_6146;
GPGPU-Sim PTX:    immediate post dominator      @  PC=0x648 (_1.ptx:313) cvt.f64.f32 %fd5, %f44;
GPGPU-Sim PTX: ... end of reconvergence points for _Z18executeSecondLayerPfS_S_
GPGPU-Sim PTX: ... done pre-decoding instructions for '_Z18executeSecondLayerPfS_S_'.
GPGPU-Sim PTX: instruction assembly for function '_Z17executeThirdLayerPfS_S_'...   done.
GPGPU-Sim PTX: finding reconvergence points for '_Z17executeThirdLayerPfS_S_'...
GPGPU-Sim PTX: Finding dominators for '_Z17executeThirdLayerPfS_S_'...
GPGPU-Sim PTX: Finding immediate dominators for '_Z17executeThirdLayerPfS_S_'...
GPGPU-Sim PTX: Finding postdominators for '_Z17executeThirdLayerPfS_S_'...
GPGPU-Sim PTX: Finding immediate postdominators for '_Z17executeThirdLayerPfS_S_'...
GPGPU-Sim PTX: pre-decoding instructions for '_Z17executeThirdLayerPfS_S_'...
GPGPU-Sim PTX: reconvergence points for _Z17executeThirdLayerPfS_S_...
GPGPU-Sim PTX:  1 (potential) branch divergence @  PC=0x788 (_1.ptx:373) @%p1 bra $Lt_2_4098;
GPGPU-Sim PTX:    immediate post dominator      @  PC=0x790 (_1.ptx:375) cvt.f64.f32 %fd1, %f1;
GPGPU-Sim PTX:  2 (potential) branch divergence @  PC=0x7d0 (_1.ptx:383) @!%p2 bra $Lt_2_4866;
GPGPU-Sim PTX:    immediate post dominator      @  PC=0x930 (_1.ptx:435) cvt.f64.f32 %fd5, %f29;
GPGPU-Sim PTX:  3 (potential) branch divergence @  PC=0x8b8 (_1.ptx:415) bra.uni $Lt_2_4610;
GPGPU-Sim PTX:    immediate post dominator      @  PC=0x930 (_1.ptx:435) cvt.f64.f32 %fd5, %f29;
GPGPU-Sim PTX: ... end of reconvergence points for _Z17executeThirdLayerPfS_S_
GPGPU-Sim PTX: ... done pre-decoding instructions for '_Z17executeThirdLayerPfS_S_'.
GPGPU-Sim PTX: instruction assembly for function '_Z18executeFourthLayerPfS_S_'...   done.
GPGPU-Sim PTX: finding reconvergence points for '_Z18executeFourthLayerPfS_S_'...
GPGPU-Sim PTX: Finding dominators for '_Z18executeFourthLayerPfS_S_'...
GPGPU-Sim PTX: Finding immediate dominators for '_Z18executeFourthLayerPfS_S_'...
GPGPU-Sim PTX: Finding postdominators for '_Z18executeFourthLayerPfS_S_'...
GPGPU-Sim PTX: Finding immediate postdominators for '_Z18executeFourthLayerPfS_S_'...
GPGPU-Sim PTX: pre-decoding instructions for '_Z18executeFourthLayerPfS_S_'...
GPGPU-Sim PTX: reconvergence points for _Z18executeFourthLayerPfS_S_...
GPGPU-Sim PTX:  1 (potential) branch divergence @  PC=0xa50 (_1.ptx:491) @%p1 bra $Lt_3_4098;
GPGPU-Sim PTX:    immediate post dominator      @  PC=0xa58 (_1.ptx:493) cvt.f64.f32 %fd1, %f1;
GPGPU-Sim PTX:  2 (potential) branch divergence @  PC=0xa98 (_1.ptx:501) @!%p2 bra $Lt_3_4866;
GPGPU-Sim PTX:    immediate post dominator      @  PC=0xbf8 (_1.ptx:553) cvt.f64.f32 %fd5, %f29;
GPGPU-Sim PTX:  3 (potential) branch divergence @  PC=0xb80 (_1.ptx:533) bra.uni $Lt_3_4610;
GPGPU-Sim PTX:    immediate post dominator      @  PC=0xbf8 (_1.ptx:553) cvt.f64.f32 %fd5, %f29;
GPGPU-Sim PTX: ... end of reconvergence points for _Z18executeFourthLayerPfS_S_
GPGPU-Sim PTX: ... done pre-decoding instructions for '_Z18executeFourthLayerPfS_S_'.
GPGPU-Sim PTX: finished parsing EMBEDDED .ptx file _1.ptx
Adding _cuobjdump_1.ptx with cubin handle 1
GPGPU-Sim PTX: extracting embedded .ptx to temporary file "_ptx_IMsZrR"
Running: cat _ptx_IMsZrR | sed 's/.version 1.5/.version 1.4/' | sed 's/, texmode_independent//' | sed 's/\(\.extern \.const\[1\] .b8 \w\+\)\[\]/\1\[1\]/' | sed 's/const\[.\]/const\[0\]/g' > _ptx2_8ZiUQv
GPGPU-Sim PTX: generating ptxinfo using "$CUDA_INSTALL_PATH/bin/ptxas --gpu-name=sm_20 -v _ptx2_8ZiUQv --output-file  /dev/null 2> _ptx_IMsZrRinfo"
GPGPU-Sim PTX: Kernel '_Z18executeFourthLayerPfS_S_' : regs=12, lmem=0, smem=0, cmem=288
GPGPU-Sim PTX: Kernel '_Z17executeThirdLayerPfS_S_' : regs=12, lmem=0, smem=0, cmem=288
GPGPU-Sim PTX: Kernel '_Z18executeSecondLayerPfS_S_' : regs=22, lmem=0, smem=0, cmem=288
GPGPU-Sim PTX: Kernel '_Z17executeFirstLayerPfS_S_' : regs=17, lmem=0, smem=0, cmem=288
GPGPU-Sim PTX: removing ptxinfo using "rm -f _ptx_IMsZrR _ptx2_8ZiUQv _ptx_IMsZrRinfo"
GPGPU-Sim PTX: loading globals with explicit initializers... 
GPGPU-Sim PTX: finished loading globals (0 bytes total).
GPGPU-Sim PTX: loading constants with explicit initializers...  done.
GPGPU-Sim PTX: __cudaRegisterFunction _Z17executeThirdLayerPfS_S_ : hostFun 0x0x40298f, fat_cubin_handle = 1
GPGPU-Sim PTX: __cudaRegisterFunction _Z18executeSecondLayerPfS_S_ : hostFun 0x0x4028cd, fat_cubin_handle = 1
GPGPU-Sim PTX: __cudaRegisterFunction _Z17executeFirstLayerPfS_S_ : hostFun 0x0x40280b, fat_cubin_handle = 1
GPGPU-Sim PTX: __cudaRegisterVar: hostVar = 0x60a180; deviceAddress = kernelTemplate; deviceName = kernelTemplate
GPGPU-Sim PTX: __cudaRegisterVar: Registering const memory space of 100 bytes
GPGPU-Sim PTX registering constant kernelTemplate (100 bytes) to name mapping
GPGPU-Sim PTX: __cudaRegisterVar: hostVar = 0x60a200; deviceAddress = kernelTemplate2; deviceName = kernelTemplate2
GPGPU-Sim PTX: __cudaRegisterVar: Registering const memory space of 100 bytes
GPGPU-Sim PTX registering constant kernelTemplate2 (100 bytes) to name mapping
magic number = 2051
number of items = 10000
number of rows = 28
number of rows = 28
NUM=28

GPGPU-Sim PTX: cudaLaunch for 0x0x40280b (mode=performance simulation) on stream 0
GPGPU-Sim PTX: pushing kernel '_Z17executeFirstLayerPfS_S_' to stream 0, gridDim= (6,28,1) blockDim = (13,13,1) 
kernel '_Z17executeFirstLayerPfS_S_' transfer to GPU hardware scheduler
GPGPU-Sim uArch: Shader 1 bind to kernel 1 '_Z17executeFirstLayerPfS_S_'
GPGPU-Sim uArch: CTA/core = 8, limited by: threads regs cta_limit
GPGPU-Sim uArch: core:  1, cta: 0 initialized @(1,0)
GPGPU-Sim uArch: Shader 2 bind to kernel 1 '_Z17executeFirstLayerPfS_S_'
GPGPU-Sim uArch: core:  2, cta: 0 initialized @(1,0)
GPGPU-Sim uArch: Shader 3 bind to kernel 1 '_Z17executeFirstLayerPfS_S_'
GPGPU-Sim uArch: core:  3, cta: 0 initialized @(1,0)
GPGPU-Sim uArch: Shader 4 bind to kernel 1 '_Z17executeFirstLayerPfS_S_'
GPGPU-Sim uArch: core:  4, cta: 0 initialized @(1,0)
GPGPU-Sim uArch: Shader 5 bind to kernel 1 '_Z17executeFirstLayerPfS_S_'
GPGPU-Sim uArch: core:  5, cta: 0 initialized @(1,0)
GPGPU-Sim uArch: Shader 6 bind to kernel 1 '_Z17executeFirstLayerPfS_S_'
GPGPU-Sim uArch: core:  6, cta: 0 initialized @(1,0)
GPGPU-Sim uArch: Shader 7 bind to kernel 1 '_Z17executeFirstLayerPfS_S_'
GPGPU-Sim uArch: core:  7, cta: 0 initialized @(1,0)
GPGPU-Sim uArch: Shader 8 bind to kernel 1 '_Z17executeFirstLayerPfS_S_'
GPGPU-Sim uArch: core:  8, cta: 0 initialized @(1,0)
GPGPU-Sim uArch: Shader 9 bind to kernel 1 '_Z17executeFirstLayerPfS_S_'
GPGPU-Sim uArch: core:  9, cta: 0 initialized @(1,0)
GPGPU-Sim uArch: Shader 10 bind to kernel 1 '_Z17executeFirstLayerPfS_S_'
GPGPU-Sim uArch: core: 10, cta: 0 initialized @(1,0)
GPGPU-Sim uArch: Shader 11 bind to kernel 1 '_Z17executeFirstLayerPfS_S_'
GPGPU-Sim uArch: core: 11, cta: 0 initialized @(1,0)
GPGPU-Sim uArch: Shader 12 bind to kernel 1 '_Z17executeFirstLayerPfS_S_'
GPGPU-Sim uArch: core: 12, cta: 0 initialized @(1,0)
GPGPU-Sim uArch: Shader 13 bind to kernel 1 '_Z17executeFirstLayerPfS_S_'
GPGPU-Sim uArch: core: 13, cta: 0 initialized @(1,0)
GPGPU-Sim uArch: Shader 14 bind to kernel 1 '_Z17executeFirstLayerPfS_S_'
GPGPU-Sim uArch: core: 14, cta: 0 initialized @(1,0)
GPGPU-Sim uArch: Shader 0 bind to kernel 1 '_Z17executeFirstLayerPfS_S_'
GPGPU-Sim uArch: core:  0, cta: 0 initialized @(1,0)
GPGPU-Sim uArch: core:  1, cta: 1 initialized @(2,0)
GPGPU-Sim uArch: core:  2, cta: 1 initialized @(2,0)
GPGPU-Sim uArch: core:  3, cta: 1 initialized @(2,0)
GPGPU-Sim uArch: core:  4, cta: 1 initialized @(2,0)
GPGPU-Sim uArch: core:  5, cta: 1 initialized @(2,0)
GPGPU-Sim uArch: core:  6, cta: 1 initialized @(2,0)
GPGPU-Sim uArch: core:  7, cta: 1 initialized @(2,0)
GPGPU-Sim uArch: core:  8, cta: 1 initialized @(2,0)
GPGPU-Sim uArch: core:  9, cta: 1 initialized @(2,0)
GPGPU-Sim uArch: core: 10, cta: 1 initialized @(2,0)
GPGPU-Sim uArch: core: 11, cta: 1 initialized @(2,0)
GPGPU-Sim uArch: core: 12, cta: 1 initialized @(2,0)
GPGPU-Sim uArch: core: 13, cta: 1 initialized @(2,0)
GPGPU-Sim uArch: core: 14, cta: 1 initialized @(2,0)
GPGPU-Sim uArch: core:  0, cta: 1 initialized @(2,0)
GPGPU-Sim uArch: core:  1, cta: 2 initialized @(3,0)
GPGPU-Sim uArch: core:  2, cta: 2 initialized @(3,0)
GPGPU-Sim uArch: core:  3, cta: 2 initialized @(3,0)
GPGPU-Sim uArch: core:  4, cta: 2 initialized @(3,0)
GPGPU-Sim uArch: core:  5, cta: 2 initialized @(3,0)
GPGPU-Sim uArch: core:  6, cta: 2 initialized @(3,0)
GPGPU-Sim uArch: core:  7, cta: 2 initialized @(3,0)
GPGPU-Sim uArch: core:  8, cta: 2 initialized @(3,0)
GPGPU-Sim uArch: core:  9, cta: 2 initialized @(3,0)
GPGPU-Sim uArch: core: 10, cta: 2 initialized @(3,0)
GPGPU-Sim uArch: core: 11, cta: 2 initialized @(3,0)
GPGPU-Sim uArch: core: 12, cta: 2 initialized @(3,0)
GPGPU-Sim uArch: core: 13, cta: 2 initialized @(3,0)
GPGPU-Sim uArch: core: 14, cta: 2 initialized @(3,0)
GPGPU-Sim uArch: core:  0, cta: 2 initialized @(3,0)
GPGPU-Sim uArch: core:  1, cta: 3 initialized @(4,0)
GPGPU-Sim uArch: core:  2, cta: 3 initialized @(4,0)
GPGPU-Sim uArch: core:  3, cta: 3 initialized @(4,0)
GPGPU-Sim uArch: core:  4, cta: 3 initialized @(4,0)
GPGPU-Sim uArch: core:  5, cta: 3 initialized @(4,0)
GPGPU-Sim uArch: core:  6, cta: 3 initialized @(4,0)
GPGPU-Sim uArch: core:  7, cta: 3 initialized @(4,0)
GPGPU-Sim uArch: core:  8, cta: 3 initialized @(4,0)
GPGPU-Sim uArch: core:  9, cta: 3 initialized @(4,0)
GPGPU-Sim uArch: core: 10, cta: 3 initialized @(4,0)
GPGPU-Sim uArch: core: 11, cta: 3 initialized @(4,0)
GPGPU-Sim uArch: core: 12, cta: 3 initialized @(4,0)
GPGPU-Sim uArch: core: 13, cta: 3 initialized @(4,0)
GPGPU-Sim uArch: core: 14, cta: 3 initialized @(4,0)
GPGPU-Sim uArch: core:  0, cta: 3 initialized @(4,0)
GPGPU-Sim uArch: core:  1, cta: 4 initialized @(5,0)
GPGPU-Sim uArch: core:  2, cta: 4 initialized @(5,0)
GPGPU-Sim uArch: core:  3, cta: 4 initialized @(5,0)
GPGPU-Sim uArch: core:  4, cta: 4 initialized @(5,0)
GPGPU-Sim uArch: core:  5, cta: 4 initialized @(5,0)
GPGPU-Sim uArch: core:  6, cta: 4 initialized @(5,0)
GPGPU-Sim uArch: core:  7, cta: 4 initialized @(5,0)
GPGPU-Sim uArch: core:  8, cta: 4 initialized @(5,0)
GPGPU-Sim uArch: core:  9, cta: 4 initialized @(5,0)
GPGPU-Sim uArch: core: 10, cta: 4 initialized @(5,0)
GPGPU-Sim uArch: core: 11, cta: 4 initialized @(5,0)
GPGPU-Sim uArch: core: 12, cta: 4 initialized @(5,0)
GPGPU-Sim uArch: core: 13, cta: 4 initialized @(5,0)
GPGPU-Sim uArch: core: 14, cta: 4 initialized @(5,0)
GPGPU-Sim uArch: core:  0, cta: 4 initialized @(5,0)
GPGPU-Sim uArch: core:  1, cta: 5 initialized @(6,0)
GPGPU-Sim uArch: core:  2, cta: 5 initialized @(6,0)
GPGPU-Sim uArch: core:  3, cta: 5 initialized @(6,0)
GPGPU-Sim uArch: core:  4, cta: 5 initialized @(6,0)
GPGPU-Sim uArch: core:  5, cta: 5 initialized @(6,0)
GPGPU-Sim uArch: core:  6, cta: 5 initialized @(6,0)
GPGPU-Sim uArch: core:  7, cta: 5 initialized @(6,0)
GPGPU-Sim uArch: core:  8, cta: 5 initialized @(6,0)
GPGPU-Sim uArch: core:  9, cta: 5 initialized @(6,0)
GPGPU-Sim uArch: core: 10, cta: 5 initialized @(6,0)
GPGPU-Sim uArch: core: 11, cta: 5 initialized @(6,0)
GPGPU-Sim uArch: core: 12, cta: 5 initialized @(6,0)
GPGPU-Sim uArch: core: 13, cta: 5 initialized @(6,0)
GPGPU-Sim uArch: core: 14, cta: 5 initialized @(6,0)
GPGPU-Sim uArch: core:  0, cta: 5 initialized @(6,0)
GPGPU-Sim uArch: core:  1, cta: 6 initialized @(7,0)
GPGPU-Sim uArch: core:  2, cta: 6 initialized @(7,0)
GPGPU-Sim uArch: core:  3, cta: 6 initialized @(7,0)
GPGPU-Sim uArch: core:  4, cta: 6 initialized @(7,0)
GPGPU-Sim uArch: core:  5, cta: 6 initialized @(7,0)
GPGPU-Sim uArch: core:  6, cta: 6 initialized @(7,0)
GPGPU-Sim uArch: core:  7, cta: 6 initialized @(7,0)
GPGPU-Sim uArch: core:  8, cta: 6 initialized @(7,0)
GPGPU-Sim uArch: core:  9, cta: 6 initialized @(7,0)
GPGPU-Sim uArch: core: 10, cta: 6 initialized @(7,0)
GPGPU-Sim uArch: core: 11, cta: 6 initialized @(7,0)
GPGPU-Sim uArch: core: 12, cta: 6 initialized @(7,0)
GPGPU-Sim uArch: core: 13, cta: 6 initialized @(7,0)
GPGPU-Sim uArch: core: 14, cta: 6 initialized @(7,0)
GPGPU-Sim uArch: core:  0, cta: 6 initialized @(7,0)
GPGPU-Sim uArch: core:  1, cta: 7 initialized @(8,0)
GPGPU-Sim uArch: core:  2, cta: 7 initialized @(8,0)
GPGPU-Sim uArch: core:  3, cta: 7 initialized @(8,0)
GPGPU-Sim uArch: core:  4, cta: 7 initialized @(8,0)
GPGPU-Sim uArch: core:  5, cta: 7 initialized @(8,0)
GPGPU-Sim uArch: core:  6, cta: 7 initialized @(8,0)
GPGPU-Sim uArch: core:  7, cta: 7 initialized @(8,0)
GPGPU-Sim uArch: core:  8, cta: 7 initialized @(8,0)
GPGPU-Sim uArch: core:  9, cta: 7 initialized @(8,0)
GPGPU-Sim uArch: core: 10, cta: 7 initialized @(8,0)
GPGPU-Sim uArch: core: 11, cta: 7 initialized @(8,0)
GPGPU-Sim uArch: core: 12, cta: 7 initialized @(8,0)
GPGPU-Sim uArch: core: 13, cta: 7 initialized @(8,0)
GPGPU-Sim uArch: core: 14, cta: 7 initialized @(8,0)
GPGPU-Sim uArch: core:  0, cta: 7 initialized @(8,0)
GPGPU-Sim uArch: cycles simulated: 500  inst.: 70695 (ipc=141.4) sim_rate=70695 (inst/sec) elapsed = 0:0:00:01 / Wed Apr 17 12:24:45 2019
GPGPU-Sim PTX: 100000 instructions simulated : ctaid=(2,0,0) tid=(0,12,0)
GPGPU-Sim PTX: 200000 instructions simulated : ctaid=(5,7,0) tid=(8,5,0)
GPGPU-Sim uArch: cycles simulated: 1000  inst.: 244529 (ipc=244.5) sim_rate=122264 (inst/sec) elapsed = 0:0:00:02 / Wed Apr 17 12:24:46 2019
GPGPU-Sim PTX: 300000 instructions simulated : ctaid=(3,13,0) tid=(9,12,0)
GPGPU-Sim PTX: 400000 instructions simulated : ctaid=(0,0,0) tid=(9,5,0)
GPGPU-Sim PTX: 500000 instructions simulated : ctaid=(0,0,0) tid=(2,12,0)
GPGPU-Sim uArch: cycles simulated: 2000  inst.: 511384 (ipc=255.7) sim_rate=170461 (inst/sec) elapsed = 0:0:00:03 / Wed Apr 17 12:24:47 2019
GPGPU-Sim PTX: 600000 instructions simulated : ctaid=(0,4,0) tid=(7,11,0)
GPGPU-Sim PTX: 700000 instructions simulated : ctaid=(3,0,0) tid=(1,5,0)
GPGPU-Sim PTX: 800000 instructions simulated : ctaid=(5,2,0) tid=(2,12,0)
GPGPU-Sim uArch: cycles simulated: 3000  inst.: 816132 (ipc=272.0) sim_rate=204033 (inst/sec) elapsed = 0:0:00:04 / Wed Apr 17 12:24:48 2019
GPGPU-Sim PTX: 900000 instructions simulated : ctaid=(4,3,0) tid=(7,9,0)
GPGPU-Sim PTX: 1000000 instructions simulated : ctaid=(0,10,0) tid=(5,8,0)
GPGPU-Sim PTX: 1100000 instructions simulated : ctaid=(2,19,0) tid=(6,0,0)
GPGPU-Sim PTX: 1200000 instructions simulated : ctaid=(3,5,0) tid=(9,9,0)
GPGPU-Sim uArch: cycles simulated: 3500  inst.: 1207429 (ipc=345.0) sim_rate=241485 (inst/sec) elapsed = 0:0:00:05 / Wed Apr 17 12:24:49 2019
GPGPU-Sim PTX: 1300000 instructions simulated : ctaid=(4,4,0) tid=(0,12,0)
GPGPU-Sim PTX: 1400000 instructions simulated : ctaid=(2,7,0) tid=(4,7,0)
GPGPU-Sim PTX: 1500000 instructions simulated : ctaid=(1,7,0) tid=(6,2,0)
GPGPU-Sim PTX: 1600000 instructions simulated : ctaid=(0,8,0) tid=(12,3,0)
GPGPU-Sim uArch: cycles simulated: 4000  inst.: 1592709 (ipc=398.2) sim_rate=265451 (inst/sec) elapsed = 0:0:00:06 / Wed Apr 17 12:24:50 2019
GPGPU-Sim PTX: 1700000 instructions simulated : ctaid=(1,10,0) tid=(9,2,0)
GPGPU-Sim PTX: 1800000 instructions simulated : ctaid=(1,16,0) tid=(7,0,0)
GPGPU-Sim PTX: 1900000 instructions simulated : ctaid=(5,8,0) tid=(8,2,0)
GPGPU-Sim uArch: cycles simulated: 4500  inst.: 1969031 (ipc=437.6) sim_rate=281290 (inst/sec) elapsed = 0:0:00:07 / Wed Apr 17 12:24:51 2019
GPGPU-Sim PTX: 2000000 instructions simulated : ctaid=(1,10,0) tid=(5,5,0)
GPGPU-Sim PTX: 2100000 instructions simulated : ctaid=(4,7,0) tid=(4,10,0)
GPGPU-Sim PTX: 2200000 instructions simulated : ctaid=(0,13,0) tid=(9,12,0)
GPGPU-Sim PTX: 2300000 instructions simulated : ctaid=(4,19,0) tid=(0,8,0)
GPGPU-Sim uArch: cycles simulated: 5000  inst.: 2341519 (ipc=468.3) sim_rate=292689 (inst/sec) elapsed = 0:0:00:08 / Wed Apr 17 12:24:52 2019
GPGPU-Sim PTX: 2400000 instructions simulated : ctaid=(0,9,0) tid=(12,2,0)
GPGPU-Sim PTX: 2500000 instructions simulated : ctaid=(4,19,0) tid=(8,0,0)
GPGPU-Sim PTX: 2600000 instructions simulated : ctaid=(4,2,0) tid=(12,12,0)
GPGPU-Sim PTX: 2700000 instructions simulated : ctaid=(0,3,0) tid=(5,3,0)
GPGPU-Sim uArch: cycles simulated: 5500  inst.: 2715206 (ipc=493.7) sim_rate=301689 (inst/sec) elapsed = 0:0:00:09 / Wed Apr 17 12:24:53 2019
GPGPU-Sim PTX: 2800000 instructions simulated : ctaid=(4,13,0) tid=(10,1,0)
GPGPU-Sim PTX: 2900000 instructions simulated : ctaid=(4,6,0) tid=(8,5,0)
GPGPU-Sim PTX: 3000000 instructions simulated : ctaid=(3,1,0) tid=(6,7,0)
GPGPU-Sim PTX: 3100000 instructions simulated : ctaid=(2,10,0) tid=(3,11,0)
GPGPU-Sim PTX: 3200000 instructions simulated : ctaid=(4,1,0) tid=(11,2,0)
GPGPU-Sim PTX: 3300000 instructions simulated : ctaid=(2,4,0) tid=(0,8,0)
GPGPU-Sim PTX: 3400000 instructions simulated : ctaid=(4,16,0) tid=(5,1,0)
GPGPU-Sim uArch: cycles simulated: 6500  inst.: 3461789 (ipc=532.6) sim_rate=346178 (inst/sec) elapsed = 0:0:00:10 / Wed Apr 17 12:24:54 2019
GPGPU-Sim PTX: 3500000 instructions simulated : ctaid=(4,19,0) tid=(7,3,0)
GPGPU-Sim PTX: 3600000 instructions simulated : ctaid=(0,12,0) tid=(8,2,0)
GPGPU-Sim PTX: 3700000 instructions simulated : ctaid=(3,9,0) tid=(4,7,0)
GPGPU-Sim PTX: 3800000 instructions simulated : ctaid=(2,1,0) tid=(10,7,0)
GPGPU-Sim uArch: cycles simulated: 7000  inst.: 3832919 (ipc=547.6) sim_rate=348447 (inst/sec) elapsed = 0:0:00:11 / Wed Apr 17 12:24:55 2019
GPGPU-Sim PTX: 3900000 instructions simulated : ctaid=(2,7,0) tid=(1,3,0)
GPGPU-Sim PTX: 4000000 instructions simulated : ctaid=(3,13,0) tid=(3,9,0)
GPGPU-Sim PTX: 4100000 instructions simulated : ctaid=(2,16,0) tid=(4,12,0)
GPGPU-Sim PTX: 4200000 instructions simulated : ctaid=(5,11,0) tid=(4,0,0)
GPGPU-Sim uArch: cycles simulated: 7500  inst.: 4206618 (ipc=560.9) sim_rate=350551 (inst/sec) elapsed = 0:0:00:12 / Wed Apr 17 12:24:56 2019
GPGPU-Sim PTX: 4300000 instructions simulated : ctaid=(1,11,0) tid=(2,4,0)
GPGPU-Sim PTX: 4400000 instructions simulated : ctaid=(0,18,0) tid=(5,2,0)
GPGPU-Sim PTX: 4500000 instructions simulated : ctaid=(3,19,0) tid=(10,0,0)
GPGPU-Sim uArch: cycles simulated: 8000  inst.: 4580775 (ipc=572.6) sim_rate=352367 (inst/sec) elapsed = 0:0:00:13 / Wed Apr 17 12:24:57 2019
GPGPU-Sim PTX: 4600000 instructions simulated : ctaid=(0,15,0) tid=(6,0,0)
GPGPU-Sim PTX: 4700000 instructions simulated : ctaid=(4,6,0) tid=(5,3,0)
GPGPU-Sim PTX: 4800000 instructions simulated : ctaid=(4,8,0) tid=(3,11,0)
GPGPU-Sim PTX: 4900000 instructions simulated : ctaid=(2,2,0) tid=(5,12,0)
GPGPU-Sim uArch: cycles simulated: 8500  inst.: 4954094 (ipc=582.8) sim_rate=353863 (inst/sec) elapsed = 0:0:00:14 / Wed Apr 17 12:24:58 2019
GPGPU-Sim PTX: 5000000 instructions simulated : ctaid=(2,19,0) tid=(8,9,0)
GPGPU-Sim PTX: 5100000 instructions simulated : ctaid=(3,12,0) tid=(5,2,0)
GPGPU-Sim PTX: 5200000 instructions simulated : ctaid=(5,10,0) tid=(11,2,0)
GPGPU-Sim PTX: 5300000 instructions simulated : ctaid=(5,14,0) tid=(2,6,0)
GPGPU-Sim uArch: cycles simulated: 9000  inst.: 5327223 (ipc=591.9) sim_rate=355148 (inst/sec) elapsed = 0:0:00:15 / Wed Apr 17 12:24:59 2019
GPGPU-Sim PTX: 5400000 instructions simulated : ctaid=(0,18,0) tid=(9,2,0)
GPGPU-Sim PTX: 5500000 instructions simulated : ctaid=(3,10,0) tid=(2,6,0)
GPGPU-Sim PTX: 5600000 instructions simulated : ctaid=(3,19,0) tid=(1,6,0)
GPGPU-Sim PTX: 5700000 instructions simulated : ctaid=(5,4,0) tid=(11,1,0)
GPGPU-Sim uArch: cycles simulated: 9500  inst.: 5700274 (ipc=600.0) sim_rate=356267 (inst/sec) elapsed = 0:0:00:16 / Wed Apr 17 12:25:00 2019
GPGPU-Sim PTX: 5800000 instructions simulated : ctaid=(3,5,0) tid=(2,4,0)
GPGPU-Sim PTX: 5900000 instructions simulated : ctaid=(4,16,0) tid=(5,7,0)
GPGPU-Sim PTX: 6000000 instructions simulated : ctaid=(1,16,0) tid=(2,7,0)
GPGPU-Sim uArch: cycles simulated: 10000  inst.: 6072291 (ipc=607.2) sim_rate=357193 (inst/sec) elapsed = 0:0:00:17 / Wed Apr 17 12:25:01 2019
GPGPU-Sim PTX: 6100000 instructions simulated : ctaid=(1,18,0) tid=(3,8,0)
GPGPU-Sim PTX: 6200000 instructions simulated : ctaid=(4,7,0) tid=(1,0,0)
GPGPU-Sim PTX: 6300000 instructions simulated : ctaid=(5,4,0) tid=(10,11,0)
GPGPU-Sim PTX: 6400000 instructions simulated : ctaid=(3,19,0) tid=(10,11,0)
GPGPU-Sim uArch: cycles simulated: 10500  inst.: 6439581 (ipc=613.3) sim_rate=357754 (inst/sec) elapsed = 0:0:00:18 / Wed Apr 17 12:25:02 2019
GPGPU-Sim PTX: 6500000 instructions simulated : ctaid=(2,3,0) tid=(8,9,0)
GPGPU-Sim PTX: 6600000 instructions simulated : ctaid=(1,10,0) tid=(12,2,0)
GPGPU-Sim PTX: 6700000 instructions simulated : ctaid=(4,16,0) tid=(2,5,0)
GPGPU-Sim uArch: cycles simulated: 11000  inst.: 6786111 (ipc=616.9) sim_rate=357163 (inst/sec) elapsed = 0:0:00:19 / Wed Apr 17 12:25:03 2019
GPGPU-Sim PTX: 6800000 instructions simulated : ctaid=(2,8,0) tid=(7,1,0)
GPGPU-Sim PTX: 6900000 instructions simulated : ctaid=(0,16,0) tid=(7,0,0)
GPGPU-Sim PTX: 7000000 instructions simulated : ctaid=(5,11,0) tid=(6,10,0)
GPGPU-Sim PTX: 7100000 instructions simulated : ctaid=(5,11,0) tid=(3,1,0)
GPGPU-Sim uArch: cycles simulated: 11500  inst.: 7092187 (ipc=616.7) sim_rate=354609 (inst/sec) elapsed = 0:0:00:20 / Wed Apr 17 12:25:04 2019
GPGPU-Sim PTX: 7200000 instructions simulated : ctaid=(3,6,0) tid=(12,0,0)
GPGPU-Sim uArch: Shader 13 finished CTA #0 (11725,0), 7 CTAs running
GPGPU-Sim uArch: core: 13, cta: 0 initialized @(11726,0)
GPGPU-Sim uArch: Shader 11 finished CTA #1 (11757,0), 7 CTAs running
GPGPU-Sim uArch: core: 11, cta: 1 initialized @(11758,0)
GPGPU-Sim uArch: Shader 11 finished CTA #0 (11795,0), 7 CTAs running
GPGPU-Sim uArch: core: 11, cta: 0 initialized @(11796,0)
GPGPU-Sim PTX: 7300000 instructions simulated : ctaid=(2,7,0) tid=(2,3,0)
GPGPU-Sim uArch: cycles simulated: 12000  inst.: 7352507 (ipc=612.7) sim_rate=350119 (inst/sec) elapsed = 0:0:00:21 / Wed Apr 17 12:25:05 2019
GPGPU-Sim PTX: 7400000 instructions simulated : ctaid=(0,14,0) tid=(2,11,0)
GPGPU-Sim uArch: Shader 13 finished CTA #1 (12174,0), 7 CTAs running
GPGPU-Sim uArch: core: 13, cta: 1 initialized @(12175,0)
GPGPU-Sim uArch: Shader 6 finished CTA #0 (12175,0), 7 CTAs running
GPGPU-Sim uArch: core:  6, cta: 0 initialized @(12176,0)
GPGPU-Sim uArch: Shader 1 finished CTA #0 (12193,0), 7 CTAs running
GPGPU-Sim uArch: core:  1, cta: 0 initialized @(12194,0)
GPGPU-Sim uArch: Shader 1 finished CTA #1 (12210,0), 7 CTAs running
GPGPU-Sim uArch: Shader 10 finished CTA #0 (12210,0), 7 CTAs running
GPGPU-Sim uArch: core: 10, cta: 0 initialized @(12211,0)
GPGPU-Sim uArch: core:  1, cta: 1 initialized @(12211,0)
GPGPU-Sim PTX: 7500000 instructions simulated : ctaid=(2,14,0) tid=(8,5,0)
GPGPU-Sim uArch: Shader 6 finished CTA #1 (12232,0), 7 CTAs running
GPGPU-Sim uArch: core:  6, cta: 1 initialized @(12233,0)
GPGPU-Sim uArch: Shader 2 finished CTA #1 (12248,0), 7 CTAs running
GPGPU-Sim uArch: core:  2, cta: 1 initialized @(12249,0)
GPGPU-Sim uArch: Shader 5 finished CTA #0 (12265,0), 7 CTAs running
GPGPU-Sim uArch: core:  5, cta: 0 initialized @(12266,0)
GPGPU-Sim uArch: Shader 2 finished CTA #0 (12274,0), 7 CTAs running
GPGPU-Sim uArch: core:  2, cta: 0 initialized @(12275,0)
GPGPU-Sim uArch: Shader 11 finished CTA #2 (12276,0), 7 CTAs running
GPGPU-Sim uArch: core: 11, cta: 2 initialized @(12277,0)
GPGPU-Sim uArch: Shader 0 finished CTA #0 (12300,0), 7 CTAs running
GPGPU-Sim uArch: core:  0, cta: 0 initialized @(12301,0)
GPGPU-Sim uArch: Shader 5 finished CTA #1 (12321,0), 7 CTAs running
GPGPU-Sim uArch: core:  5, cta: 1 initialized @(12322,0)
GPGPU-Sim uArch: Shader 10 finished CTA #1 (12352,0), 7 CTAs running
GPGPU-Sim uArch: core: 10, cta: 1 initialized @(12353,0)
GPGPU-Sim uArch: Shader 13 finished CTA #2 (12359,0), 7 CTAs running
GPGPU-Sim uArch: core: 13, cta: 2 initialized @(12360,0)
GPGPU-Sim uArch: Shader 3 finished CTA #1 (12368,0), 7 CTAs running
GPGPU-Sim uArch: core:  3, cta: 1 initialized @(12369,0)
GPGPU-Sim PTX: 7600000 instructions simulated : ctaid=(1,19,0) tid=(7,1,0)
GPGPU-Sim uArch: Shader 3 finished CTA #0 (12388,0), 7 CTAs running
GPGPU-Sim uArch: core:  3, cta: 0 initialized @(12389,0)
GPGPU-Sim uArch: Shader 1 finished CTA #2 (12395,0), 7 CTAs running
GPGPU-Sim uArch: core:  1, cta: 2 initialized @(12396,0)
GPGPU-Sim uArch: Shader 12 finished CTA #0 (12407,0), 7 CTAs running
GPGPU-Sim uArch: core: 12, cta: 0 initialized @(12408,0)
GPGPU-Sim uArch: Shader 7 finished CTA #0 (12409,0), 7 CTAs running
GPGPU-Sim uArch: core:  7, cta: 0 initialized @(12410,0)
GPGPU-Sim uArch: Shader 8 finished CTA #0 (12420,0), 7 CTAs running
GPGPU-Sim uArch: core:  8, cta: 0 initialized @(12421,0)
GPGPU-Sim uArch: Shader 14 finished CTA #0 (12440,0), 7 CTAs running
GPGPU-Sim uArch: Shader 14 finished CTA #1 (12440,0), 6 CTAs running
GPGPU-Sim uArch: core: 14, cta: 0 initialized @(12441,0)
GPGPU-Sim uArch: core: 14, cta: 1 initialized @(12442,0)
GPGPU-Sim uArch: Shader 4 finished CTA #1 (12465,0), 7 CTAs running
GPGPU-Sim uArch: core:  4, cta: 1 initialized @(12466,0)
GPGPU-Sim uArch: Shader 2 finished CTA #2 (12467,0), 7 CTAs running
GPGPU-Sim uArch: core:  2, cta: 2 initialized @(12468,0)
GPGPU-Sim uArch: Shader 9 finished CTA #0 (12468,0), 7 CTAs running
GPGPU-Sim uArch: core:  9, cta: 0 initialized @(12469,0)
GPGPU-Sim uArch: Shader 8 finished CTA #1 (12475,0), 7 CTAs running
GPGPU-Sim uArch: core:  8, cta: 1 initialized @(12476,0)
GPGPU-Sim uArch: Shader 4 finished CTA #0 (12489,0), 7 CTAs running
GPGPU-Sim uArch: core:  4, cta: 0 initialized @(12490,0)
GPGPU-Sim uArch: Shader 12 finished CTA #1 (12492,0), 7 CTAs running
GPGPU-Sim uArch: core: 12, cta: 1 initialized @(12493,0)
GPGPU-Sim uArch: cycles simulated: 12500  inst.: 7645800 (ipc=611.7) sim_rate=347536 (inst/sec) elapsed = 0:0:00:22 / Wed Apr 17 12:25:06 2019
GPGPU-Sim uArch: Shader 7 finished CTA #1 (12513,0), 7 CTAs running
GPGPU-Sim uArch: core:  7, cta: 1 initialized @(12514,0)
GPGPU-Sim uArch: Shader 12 finished CTA #2 (12514,0), 7 CTAs running
GPGPU-Sim uArch: core: 12, cta: 2 initialized @(12515,0)
GPGPU-Sim uArch: Shader 9 finished CTA #1 (12518,0), 7 CTAs running
GPGPU-Sim uArch: core:  9, cta: 1 initialized @(12519,0)
GPGPU-Sim uArch: Shader 6 finished CTA #2 (12531,0), 7 CTAs running
GPGPU-Sim uArch: core:  6, cta: 2 initialized @(12532,0)
GPGPU-Sim PTX: 7700000 instructions simulated : ctaid=(2,11,0) tid=(3,5,0)
GPGPU-Sim uArch: Shader 5 finished CTA #2 (12565,0), 7 CTAs running
GPGPU-Sim uArch: core:  5, cta: 2 initialized @(12566,0)
GPGPU-Sim uArch: Shader 14 finished CTA #2 (12575,0), 7 CTAs running
GPGPU-Sim uArch: core: 14, cta: 2 initialized @(12576,0)
GPGPU-Sim uArch: Shader 0 finished CTA #1 (12594,0), 7 CTAs running
GPGPU-Sim uArch: core:  0, cta: 1 initialized @(12595,0)
GPGPU-Sim uArch: Shader 8 finished CTA #2 (12600,0), 7 CTAs running
GPGPU-Sim uArch: core:  8, cta: 2 initialized @(12601,0)
GPGPU-Sim uArch: Shader 10 finished CTA #2 (12610,0), 7 CTAs running
GPGPU-Sim uArch: core: 10, cta: 2 initialized @(12611,0)
GPGPU-Sim uArch: Shader 9 finished CTA #2 (12614,0), 7 CTAs running
GPGPU-Sim uArch: core:  9, cta: 2 initialized @(12615,0)
GPGPU-Sim uArch: Shader 4 finished CTA #2 (12641,0), 7 CTAs running
GPGPU-Sim uArch: core:  4, cta: 2 initialized @(12642,0)
GPGPU-Sim PTX: 7800000 instructions simulated : ctaid=(2,23,0) tid=(12,8,0)
GPGPU-Sim uArch: Shader 3 finished CTA #2 (12711,0), 7 CTAs running
GPGPU-Sim uArch: core:  3, cta: 2 initialized @(12712,0)
GPGPU-Sim uArch: Shader 0 finished CTA #2 (12792,0), 7 CTAs running
GPGPU-Sim uArch: core:  0, cta: 2 initialized @(12793,0)
GPGPU-Sim uArch: Shader 13 finished CTA #3 (12807,0), 7 CTAs running
GPGPU-Sim uArch: core: 13, cta: 3 initialized @(12808,0)
GPGPU-Sim PTX: 7900000 instructions simulated : ctaid=(2,15,0) tid=(4,9,0)
GPGPU-Sim uArch: Shader 6 finished CTA #3 (12881,0), 7 CTAs running
GPGPU-Sim uArch: core:  6, cta: 3 initialized @(12882,0)
GPGPU-Sim uArch: Shader 3 finished CTA #3 (12883,0), 7 CTAs running
GPGPU-Sim uArch: core:  3, cta: 3 initialized @(12884,0)
GPGPU-Sim uArch: Shader 10 finished CTA #3 (12887,0), 7 CTAs running
GPGPU-Sim uArch: core: 10, cta: 3 initialized @(12888,0)
GPGPU-Sim uArch: Shader 5 finished CTA #3 (12893,0), 7 CTAs running
GPGPU-Sim uArch: Shader 11 finished CTA #3 (12904,0), 7 CTAs running
GPGPU-Sim uArch: Shader 7 finished CTA #2 (12910,0), 7 CTAs running
GPGPU-Sim uArch: Shader 4 finished CTA #3 (12920,0), 7 CTAs running
GPGPU-Sim uArch: Shader 14 finished CTA #3 (12948,0), 7 CTAs running
GPGPU-Sim uArch: Shader 2 finished CTA #3 (12952,0), 7 CTAs running
GPGPU-Sim uArch: Shader 9 finished CTA #3 (12958,0), 7 CTAs running
GPGPU-Sim uArch: Shader 8 finished CTA #3 (12975,0), 7 CTAs running
GPGPU-Sim uArch: Shader 1 finished CTA #3 (12989,0), 7 CTAs running
GPGPU-Sim uArch: cycles simulated: 13000  inst.: 7959957 (ipc=612.3) sim_rate=331664 (inst/sec) elapsed = 0:0:00:24 / Wed Apr 17 12:25:08 2019
GPGPU-Sim PTX: 8000000 instructions simulated : ctaid=(3,24,0) tid=(12,4,0)
GPGPU-Sim uArch: Shader 7 finished CTA #3 (13066,0), 6 CTAs running
GPGPU-Sim uArch: Shader 0 finished CTA #3 (13122,0), 7 CTAs running
GPGPU-Sim uArch: Shader 10 finished CTA #4 (13131,0), 7 CTAs running
GPGPU-Sim uArch: Shader 9 finished CTA #4 (13159,0), 6 CTAs running
GPGPU-Sim uArch: Shader 2 finished CTA #4 (13160,0), 6 CTAs running
GPGPU-Sim PTX: 8100000 instructions simulated : ctaid=(0,23,0) tid=(8,11,0)
GPGPU-Sim uArch: Shader 13 finished CTA #4 (13249,0), 7 CTAs running
GPGPU-Sim uArch: Shader 11 finished CTA #4 (13275,0), 6 CTAs running
GPGPU-Sim uArch: Shader 1 finished CTA #4 (13298,0), 6 CTAs running
GPGPU-Sim PTX: 8200000 instructions simulated : ctaid=(5,19,0) tid=(10,2,0)
GPGPU-Sim uArch: Shader 8 finished CTA #4 (13351,0), 6 CTAs running
GPGPU-Sim uArch: Shader 12 finished CTA #3 (13375,0), 7 CTAs running
GPGPU-Sim uArch: Shader 14 finished CTA #4 (13381,0), 6 CTAs running
GPGPU-Sim uArch: Shader 4 finished CTA #4 (13384,0), 6 CTAs running
GPGPU-Sim uArch: Shader 5 finished CTA #4 (13452,0), 6 CTAs running
GPGPU-Sim PTX: 8300000 instructions simulated : ctaid=(3,26,0) tid=(9,5,0)
GPGPU-Sim uArch: Shader 7 finished CTA #4 (13495,0), 5 CTAs running
GPGPU-Sim uArch: cycles simulated: 13500  inst.: 8295753 (ipc=614.5) sim_rate=331830 (inst/sec) elapsed = 0:0:00:25 / Wed Apr 17 12:25:09 2019
GPGPU-Sim uArch: Shader 0 finished CTA #4 (13543,0), 6 CTAs running
GPGPU-Sim uArch: Shader 6 finished CTA #4 (13560,0), 7 CTAs running
GPGPU-Sim uArch: Shader 12 finished CTA #4 (13585,0), 6 CTAs running
GPGPU-Sim PTX: 8400000 instructions simulated : ctaid=(5,20,0) tid=(5,1,0)
GPGPU-Sim uArch: Shader 9 finished CTA #5 (13612,0), 5 CTAs running
GPGPU-Sim uArch: Shader 13 finished CTA #5 (13624,0), 6 CTAs running
GPGPU-Sim uArch: Shader 11 finished CTA #5 (13646,0), 5 CTAs running
GPGPU-Sim uArch: Shader 3 finished CTA #4 (13649,0), 7 CTAs running
GPGPU-Sim uArch: Shader 5 finished CTA #5 (13743,0), 5 CTAs running
GPGPU-Sim PTX: 8500000 instructions simulated : ctaid=(5,25,0) tid=(7,7,0)
GPGPU-Sim uArch: Shader 14 finished CTA #5 (13753,0), 5 CTAs running
GPGPU-Sim uArch: Shader 8 finished CTA #5 (13794,0), 5 CTAs running
GPGPU-Sim uArch: Shader 10 finished CTA #5 (13863,0), 6 CTAs running
GPGPU-Sim PTX: 8600000 instructions simulated : ctaid=(2,22,0) tid=(12,5,0)
GPGPU-Sim uArch: Shader 12 finished CTA #5 (13901,0), 5 CTAs running
GPGPU-Sim uArch: Shader 1 finished CTA #5 (13903,0), 5 CTAs running
GPGPU-Sim uArch: Shader 6 finished CTA #5 (13909,0), 6 CTAs running
GPGPU-Sim uArch: Shader 4 finished CTA #5 (13914,0), 5 CTAs running
GPGPU-Sim uArch: Shader 0 finished CTA #5 (13938,0), 5 CTAs running
GPGPU-Sim uArch: cycles simulated: 14000  inst.: 8635289 (ipc=616.8) sim_rate=332126 (inst/sec) elapsed = 0:0:00:26 / Wed Apr 17 12:25:10 2019
GPGPU-Sim uArch: Shader 7 finished CTA #5 (14025,0), 4 CTAs running
GPGPU-Sim PTX: 8700000 instructions simulated : ctaid=(0,20,0) tid=(5,0,0)
GPGPU-Sim uArch: Shader 3 finished CTA #5 (14050,0), 6 CTAs running
GPGPU-Sim uArch: Shader 2 finished CTA #5 (14059,0), 5 CTAs running
GPGPU-Sim PTX: 8800000 instructions simulated : ctaid=(0,21,0) tid=(7,11,0)
GPGPU-Sim uArch: Shader 6 finished CTA #6 (14279,0), 5 CTAs running
GPGPU-Sim uArch: Shader 11 finished CTA #6 (14300,0), 4 CTAs running
GPGPU-Sim uArch: Shader 1 finished CTA #6 (14310,0), 4 CTAs running
GPGPU-Sim PTX: 8900000 instructions simulated : ctaid=(1,25,0) tid=(4,2,0)
GPGPU-Sim uArch: Shader 12 finished CTA #6 (14329,0), 4 CTAs running
GPGPU-Sim uArch: Shader 9 finished CTA #6 (14364,0), 4 CTAs running
GPGPU-Sim uArch: Shader 2 finished CTA #6 (14369,0), 4 CTAs running
GPGPU-Sim uArch: Shader 7 finished CTA #6 (14402,0), 3 CTAs running
GPGPU-Sim uArch: Shader 3 finished CTA #6 (14426,0), 5 CTAs running
GPGPU-Sim uArch: Shader 4 finished CTA #6 (14454,0), 4 CTAs running
GPGPU-Sim PTX: 9000000 instructions simulated : ctaid=(0,23,0) tid=(10,7,0)
GPGPU-Sim uArch: cycles simulated: 14500  inst.: 8991728 (ipc=620.1) sim_rate=333026 (inst/sec) elapsed = 0:0:00:27 / Wed Apr 17 12:25:11 2019
GPGPU-Sim uArch: Shader 8 finished CTA #6 (14500,0), 4 CTAs running
GPGPU-Sim uArch: Shader 10 finished CTA #6 (14523,0), 5 CTAs running
GPGPU-Sim PTX: 9100000 instructions simulated : ctaid=(3,20,0) tid=(11,6,0)
GPGPU-Sim uArch: Shader 14 finished CTA #6 (14651,0), 4 CTAs running
GPGPU-Sim uArch: Shader 5 finished CTA #6 (14655,0), 4 CTAs running
GPGPU-Sim uArch: Shader 13 finished CTA #6 (14676,0), 5 CTAs running
GPGPU-Sim PTX: 9200000 instructions simulated : ctaid=(1,22,0) tid=(2,10,0)
GPGPU-Sim uArch: Shader 0 finished CTA #6 (14865,0), 4 CTAs running
GPGPU-Sim PTX: 9300000 instructions simulated : ctaid=(3,22,0) tid=(12,1,0)
GPGPU-Sim uArch: cycles simulated: 15000  inst.: 9353825 (ipc=623.6) sim_rate=322545 (inst/sec) elapsed = 0:0:00:29 / Wed Apr 17 12:25:13 2019
GPGPU-Sim PTX: 9400000 instructions simulated : ctaid=(2,21,0) tid=(4,5,0)
GPGPU-Sim uArch: Shader 0 finished CTA #7 (15034,0), 3 CTAs running
GPGPU-Sim uArch: Shader 12 finished CTA #7 (15081,0), 3 CTAs running
GPGPU-Sim uArch: Shader 9 finished CTA #7 (15146,0), 3 CTAs running
GPGPU-Sim PTX: 9500000 instructions simulated : ctaid=(3,19,0) tid=(5,9,0)
GPGPU-Sim uArch: Shader 5 finished CTA #7 (15154,0), 3 CTAs running
GPGPU-Sim uArch: Shader 7 finished CTA #7 (15199,0), 2 CTAs running
GPGPU-Sim uArch: Shader 14 finished CTA #7 (15214,0), 3 CTAs running
GPGPU-Sim uArch: Shader 4 finished CTA #7 (15222,0), 3 CTAs running
GPGPU-Sim uArch: Shader 11 finished CTA #7 (15266,0), 3 CTAs running
GPGPU-Sim PTX: 9600000 instructions simulated : ctaid=(5,26,0) tid=(11,12,0)
GPGPU-Sim uArch: Shader 6 finished CTA #7 (15293,0), 4 CTAs running
GPGPU-Sim uArch: Shader 10 finished CTA #7 (15382,0), 4 CTAs running
GPGPU-Sim PTX: 9700000 instructions simulated : ctaid=(0,24,0) tid=(9,1,0)
GPGPU-Sim uArch: cycles simulated: 15500  inst.: 9722079 (ipc=627.2) sim_rate=324069 (inst/sec) elapsed = 0:0:00:30 / Wed Apr 17 12:25:14 2019
GPGPU-Sim uArch: Shader 1 finished CTA #7 (15535,0), 3 CTAs running
GPGPU-Sim PTX: 9800000 instructions simulated : ctaid=(2,20,0) tid=(8,4,0)
GPGPU-Sim uArch: Shader 2 finished CTA #7 (15613,0), 3 CTAs running
GPGPU-Sim uArch: Shader 8 finished CTA #7 (15657,0), 3 CTAs running
GPGPU-Sim PTX: 9900000 instructions simulated : ctaid=(1,23,0) tid=(5,5,0)
GPGPU-Sim uArch: Shader 3 finished CTA #7 (15805,0), 4 CTAs running
GPGPU-Sim PTX: 10000000 instructions simulated : ctaid=(3,20,0) tid=(5,2,0)
GPGPU-Sim uArch: Shader 13 finished CTA #7 (15952,0), 4 CTAs running
GPGPU-Sim PTX: 10100000 instructions simulated : ctaid=(5,20,0) tid=(12,8,0)
GPGPU-Sim uArch: cycles simulated: 16000  inst.: 10093011 (ipc=630.8) sim_rate=325581 (inst/sec) elapsed = 0:0:00:31 / Wed Apr 17 12:25:15 2019
GPGPU-Sim PTX: 10200000 instructions simulated : ctaid=(1,22,0) tid=(10,7,0)
GPGPU-Sim PTX: 10300000 instructions simulated : ctaid=(5,24,0) tid=(11,0,0)
GPGPU-Sim PTX: 10400000 instructions simulated : ctaid=(3,24,0) tid=(1,5,0)
GPGPU-Sim uArch: cycles simulated: 16500  inst.: 10454744 (ipc=633.6) sim_rate=326710 (inst/sec) elapsed = 0:0:00:32 / Wed Apr 17 12:25:16 2019
GPGPU-Sim PTX: 10500000 instructions simulated : ctaid=(2,21,0) tid=(10,5,0)
GPGPU-Sim PTX: 10600000 instructions simulated : ctaid=(5,22,0) tid=(4,8,0)
GPGPU-Sim PTX: 10700000 instructions simulated : ctaid=(2,22,0) tid=(1,12,0)
GPGPU-Sim PTX: 10800000 instructions simulated : ctaid=(3,21,0) tid=(1,8,0)
GPGPU-Sim PTX: 10900000 instructions simulated : ctaid=(2,22,0) tid=(2,5,0)
GPGPU-Sim PTX: 11000000 instructions simulated : ctaid=(2,23,0) tid=(4,9,0)
GPGPU-Sim uArch: Shader 7 finished CTA #0 (17397,0), 1 CTAs running
GPGPU-Sim PTX: 11100000 instructions simulated : ctaid=(1,21,0) tid=(2,3,0)
GPGPU-Sim uArch: cycles simulated: 17500  inst.: 11094623 (ipc=634.0) sim_rate=336200 (inst/sec) elapsed = 0:0:00:33 / Wed Apr 17 12:25:17 2019
GPGPU-Sim PTX: 11200000 instructions simulated : ctaid=(5,21,0) tid=(3,4,0)
GPGPU-Sim uArch: Shader 1 finished CTA #0 (17665,0), 2 CTAs running
GPGPU-Sim uArch: Shader 11 finished CTA #1 (17698,0), 2 CTAs running
GPGPU-Sim uArch: Shader 14 finished CTA #0 (17703,0), 2 CTAs running
GPGPU-Sim uArch: Shader 12 finished CTA #0 (17818,0), 2 CTAs running
GPGPU-Sim uArch: Shader 8 finished CTA #0 (17833,0), 2 CTAs running
GPGPU-Sim PTX: 11300000 instructions simulated : ctaid=(5,25,0) tid=(2,8,0)
GPGPU-Sim uArch: cycles simulated: 18000  inst.: 11329087 (ipc=629.4) sim_rate=333208 (inst/sec) elapsed = 0:0:00:34 / Wed Apr 17 12:25:18 2019
GPGPU-Sim uArch: Shader 0 finished CTA #0 (18024,0), 2 CTAs running
GPGPU-Sim PTX: 11400000 instructions simulated : ctaid=(0,23,0) tid=(4,11,0)
GPGPU-Sim uArch: Shader 4 finished CTA #1 (18089,0), 2 CTAs running
GPGPU-Sim uArch: Shader 9 finished CTA #0 (18144,0), 2 CTAs running
GPGPU-Sim uArch: Shader 4 finished CTA #0 (18175,0), 1 CTAs running
GPGPU-Sim uArch: Shader 2 finished CTA #1 (18184,0), 2 CTAs running
GPGPU-Sim uArch: Shader 11 finished CTA #0 (18225,0), 1 CTAs running
GPGPU-Sim uArch: Shader 5 finished CTA #0 (18230,0), 2 CTAs running
GPGPU-Sim uArch: Shader 2 finished CTA #0 (18240,0), 1 CTAs running
GPGPU-Sim uArch: Shader 7 finished CTA #1 (18247,0), 0 CTAs running
GPGPU-Sim uArch: Shader 7 empty (release kernel 1 '_Z17executeFirstLayerPfS_S_').
GPGPU-Sim uArch: Shader 5 finished CTA #1 (18389,0), 1 CTAs running
GPGPU-Sim PTX: 11500000 instructions simulated : ctaid=(1,23,0) tid=(7,8,0)
GPGPU-Sim uArch: Shader 6 finished CTA #0 (18415,0), 3 CTAs running
GPGPU-Sim uArch: Shader 1 finished CTA #1 (18440,0), 1 CTAs running
GPGPU-Sim uArch: Shader 0 finished CTA #1 (18458,0), 1 CTAs running
GPGPU-Sim uArch: Shader 14 finished CTA #1 (18465,0), 1 CTAs running
GPGPU-Sim uArch: Shader 9 finished CTA #1 (18497,0), 1 CTAs running
GPGPU-Sim uArch: Shader 12 finished CTA #1 (18574,0), 1 CTAs running
GPGPU-Sim uArch: Shader 8 finished CTA #1 (18586,0), 1 CTAs running
GPGPU-Sim uArch: Shader 3 finished CTA #1 (18775,0), 3 CTAs running
GPGPU-Sim uArch: Shader 10 finished CTA #0 (18777,0), 3 CTAs running
GPGPU-Sim PTX: 11600000 instructions simulated : ctaid=(2,21,0) tid=(7,9,0)
GPGPU-Sim uArch: Shader 13 finished CTA #0 (18866,0), 3 CTAs running
GPGPU-Sim uArch: cycles simulated: 19000  inst.: 11596628 (ipc=610.3) sim_rate=331332 (inst/sec) elapsed = 0:0:00:35 / Wed Apr 17 12:25:19 2019
GPGPU-Sim uArch: Shader 1 finished CTA #2 (19106,0), 0 CTAs running
GPGPU-Sim uArch: Shader 1 empty (release kernel 1 '_Z17executeFirstLayerPfS_S_').
GPGPU-Sim uArch: Shader 12 finished CTA #2 (19143,0), 0 CTAs running
GPGPU-Sim uArch: Shader 12 empty (release kernel 1 '_Z17executeFirstLayerPfS_S_').
GPGPU-Sim uArch: Shader 10 finished CTA #1 (19166,0), 2 CTAs running
GPGPU-Sim uArch: Shader 6 finished CTA #1 (19221,0), 2 CTAs running
GPGPU-Sim uArch: Shader 13 finished CTA #1 (19249,0), 2 CTAs running
GPGPU-Sim uArch: Shader 11 finished CTA #2 (19275,0), 0 CTAs running
GPGPU-Sim uArch: Shader 11 empty (release kernel 1 '_Z17executeFirstLayerPfS_S_').
GPGPU-Sim uArch: Shader 0 finished CTA #2 (19351,0), 0 CTAs running
GPGPU-Sim uArch: Shader 0 empty (release kernel 1 '_Z17executeFirstLayerPfS_S_').
GPGPU-Sim uArch: Shader 5 finished CTA #2 (19360,0), 0 CTAs running
GPGPU-Sim uArch: Shader 5 empty (release kernel 1 '_Z17executeFirstLayerPfS_S_').
GPGPU-Sim uArch: Shader 14 finished CTA #2 (19367,0), 0 CTAs running
GPGPU-Sim uArch: Shader 14 empty (release kernel 1 '_Z17executeFirstLayerPfS_S_').
GPGPU-Sim uArch: Shader 9 finished CTA #2 (19371,0), 0 CTAs running
GPGPU-Sim uArch: Shader 9 empty (release kernel 1 '_Z17executeFirstLayerPfS_S_').
GPGPU-Sim uArch: Shader 4 finished CTA #2 (19384,0), 0 CTAs running
GPGPU-Sim uArch: Shader 4 empty (release kernel 1 '_Z17executeFirstLayerPfS_S_').
GPGPU-Sim uArch: Shader 3 finished CTA #0 (19418,0), 2 CTAs running
GPGPU-Sim uArch: Shader 2 finished CTA #2 (19569,0), 0 CTAs running
GPGPU-Sim uArch: Shader 2 empty (release kernel 1 '_Z17executeFirstLayerPfS_S_').
GPGPU-Sim PTX: 11700000 instructions simulated : ctaid=(3,27,0) tid=(1,3,0)
GPGPU-Sim uArch: Shader 8 finished CTA #2 (19623,0), 0 CTAs running
GPGPU-Sim uArch: Shader 8 empty (release kernel 1 '_Z17executeFirstLayerPfS_S_').
GPGPU-Sim uArch: Shader 10 finished CTA #2 (19808,0), 1 CTAs running
GPGPU-Sim uArch: Shader 3 finished CTA #2 (19929,0), 1 CTAs running
GPGPU-Sim uArch: Shader 6 finished CTA #2 (19967,0), 1 CTAs running
GPGPU-Sim uArch: Shader 13 finished CTA #2 (20001,0), 1 CTAs running
GPGPU-Sim uArch: Shader 10 finished CTA #3 (20645,0), 0 CTAs running
GPGPU-Sim uArch: Shader 10 empty (release kernel 1 '_Z17executeFirstLayerPfS_S_').
GPGPU-Sim uArch: Shader 13 finished CTA #3 (20652,0), 0 CTAs running
GPGPU-Sim uArch: Shader 13 empty (release kernel 1 '_Z17executeFirstLayerPfS_S_').
GPGPU-Sim uArch: Shader 3 finished CTA #3 (20707,0), 0 CTAs running
GPGPU-Sim uArch: Shader 3 empty (release kernel 1 '_Z17executeFirstLayerPfS_S_').
GPGPU-Sim uArch: Shader 6 finished CTA #3 (20758,0), 0 CTAs running
GPGPU-Sim uArch: Shader 6 empty (release kernel 1 '_Z17executeFirstLayerPfS_S_').
GPGPU-Sim uArch: GPU detected kernel '_Z17executeFirstLayerPfS_S_' finished on shader 6.
kernel_name = _Z17executeFirstLayerPfS_S_ 
kernel_launch_uid = 1 
gpu_sim_cycle = 20759
gpu_sim_insn = 11694074
gpu_ipc =     563.3255
gpu_tot_sim_cycle = 20759
gpu_tot_sim_insn = 11694074
gpu_tot_ipc =     563.3255
gpu_tot_issued_cta = 0
gpu_stall_dramfull = 10936
gpu_stall_icnt2sh    = 21790
gpu_total_sim_rate=334116

========= Core cache stats =========
L1I_cache:
	L1I_total_cache_accesses = 245114
	L1I_total_cache_misses = 1234
	L1I_total_cache_miss_rate = 0.0050
	L1I_total_cache_pending_hits = 0
	L1I_total_cache_reservation_fails = 4140
L1D_cache:
	L1D_cache_core[0]: Access = 9353, Miss = 427, Miss_rate = 0.046, Pending_hits = 31, Reservation_fails = 1518
	L1D_cache_core[1]: Access = 9401, Miss = 422, Miss_rate = 0.045, Pending_hits = 31, Reservation_fails = 1354
	L1D_cache_core[2]: Access = 9430, Miss = 404, Miss_rate = 0.043, Pending_hits = 47, Reservation_fails = 1390
	L1D_cache_core[3]: Access = 10231, Miss = 434, Miss_rate = 0.042, Pending_hits = 41, Reservation_fails = 1595
	L1D_cache_core[4]: Access = 9402, Miss = 403, Miss_rate = 0.043, Pending_hits = 49, Reservation_fails = 1425
	L1D_cache_core[5]: Access = 9373, Miss = 421, Miss_rate = 0.045, Pending_hits = 33, Reservation_fails = 1477
	L1D_cache_core[6]: Access = 10262, Miss = 460, Miss_rate = 0.045, Pending_hits = 30, Reservation_fails = 1370
	L1D_cache_core[7]: Access = 8508, Miss = 382, Miss_rate = 0.045, Pending_hits = 24, Reservation_fails = 1567
	L1D_cache_core[8]: Access = 9366, Miss = 427, Miss_rate = 0.046, Pending_hits = 30, Reservation_fails = 1490
	L1D_cache_core[9]: Access = 9361, Miss = 419, Miss_rate = 0.045, Pending_hits = 35, Reservation_fails = 1471
	L1D_cache_core[10]: Access = 10190, Miss = 465, Miss_rate = 0.046, Pending_hits = 33, Reservation_fails = 1471
	L1D_cache_core[11]: Access = 9355, Miss = 398, Miss_rate = 0.043, Pending_hits = 42, Reservation_fails = 1337
	L1D_cache_core[12]: Access = 9346, Miss = 399, Miss_rate = 0.043, Pending_hits = 51, Reservation_fails = 1376
	L1D_cache_core[13]: Access = 10246, Miss = 439, Miss_rate = 0.043, Pending_hits = 32, Reservation_fails = 1483
	L1D_cache_core[14]: Access = 9378, Miss = 429, Miss_rate = 0.046, Pending_hits = 31, Reservation_fails = 1424
	L1D_total_cache_accesses = 143202
	L1D_total_cache_misses = 6329
	L1D_total_cache_miss_rate = 0.0442
	L1D_total_cache_pending_hits = 540
	L1D_total_cache_reservation_fails = 21748
	L1D_cache_data_port_util = 0.463
	L1D_cache_fill_port_util = 0.015
L1C_cache:
	L1C_total_cache_accesses = 28224
	L1C_total_cache_misses = 991
	L1C_total_cache_miss_rate = 0.0351
	L1C_total_cache_pending_hits = 0
	L1C_total_cache_reservation_fails = 5136
L1T_cache:
	L1T_total_cache_accesses = 0
	L1T_total_cache_misses = 0
	L1T_total_cache_pending_hits = 0
	L1T_total_cache_reservation_fails = 0

Total_core_cache_stats:
	Total_core_cache_stats_breakdown[GLOBAL_ACC_R][HIT] = 136333
	Total_core_cache_stats_breakdown[GLOBAL_ACC_R][HIT_RESERVED] = 540
	Total_core_cache_stats_breakdown[GLOBAL_ACC_R][MISS] = 4469
	Total_core_cache_stats_breakdown[GLOBAL_ACC_R][RESERVATION_FAIL] = 21743
	Total_core_cache_stats_breakdown[CONST_ACC_R][HIT] = 27233
	Total_core_cache_stats_breakdown[CONST_ACC_R][MISS] = 991
	Total_core_cache_stats_breakdown[CONST_ACC_R][RESERVATION_FAIL] = 5136
	Total_core_cache_stats_breakdown[GLOBAL_ACC_W][MISS] = 1860
	Total_core_cache_stats_breakdown[GLOBAL_ACC_W][RESERVATION_FAIL] = 5
	Total_core_cache_stats_breakdown[INST_ACC_R][HIT] = 243880
	Total_core_cache_stats_breakdown[INST_ACC_R][MISS] = 1234
	Total_core_cache_stats_breakdown[INST_ACC_R][RESERVATION_FAIL] = 4140
Shader 0 warp_id issue ditsribution:
warp_id:
0, 1, 2, 3, 4, 5, 6, 7, 8, 9, 10, 11, 12, 13, 14, 15, 16, 17, 18, 19, 20, 21, 22, 23, 24, 25, 26, 27, 28, 29, 30, 31, 32, 33, 34, 35, 36, 37, 38, 39, 40, 41, 42, 43, 44, 45, 46, 47, 
distro:
874, 874, 874, 874, 874, 816, 845, 874, 874, 874, 874, 845, 874, 874, 874, 874, 874, 845, 408, 437, 437, 437, 437, 437, 437, 437, 437, 437, 437, 437, 437, 437, 437, 437, 437, 408, 437, 437, 437, 437, 437, 437, 437, 437, 437, 437, 437, 408, 
gpgpu_n_tot_thrd_icount = 13976224
gpgpu_n_tot_w_icount = 436757
gpgpu_n_stall_shd_mem = 117670
gpgpu_n_mem_read_local = 0
gpgpu_n_mem_write_local = 0
gpgpu_n_mem_read_global = 4469
gpgpu_n_mem_write_global = 1860
gpgpu_n_mem_texture = 0
gpgpu_n_mem_const = 45
gpgpu_n_load_insn  = 1447992
gpgpu_n_store_insn = 28392
gpgpu_n_shmem_insn = 0
gpgpu_n_tex_insn = 0
gpgpu_n_const_mem_insn = 709800
gpgpu_n_param_mem_insn = 85176
gpgpu_n_shmem_bkconflict = 0
gpgpu_n_cache_bkconflict = 0
gpgpu_n_intrawarp_mshr_merge = 0
gpgpu_n_cmem_portconflict = 5136
gpgpu_stall_shd_mem[c_mem][bk_conf] = 5136
gpgpu_stall_shd_mem[c_mem][mshr_rc] = 0
gpgpu_stall_shd_mem[c_mem][icnt_rc] = 0
gpgpu_stall_shd_mem[c_mem][data_port_stall] = 0
gpgpu_stall_shd_mem[t_mem][mshr_rc] = 0
gpgpu_stall_shd_mem[t_mem][icnt_rc] = 0
gpgpu_stall_shd_mem[t_mem][data_port_stall] = 0
gpgpu_stall_shd_mem[s_mem][bk_conf] = 0
gpgpu_stall_shd_mem[gl_mem][bk_conf] = 0
gpgpu_stall_shd_mem[gl_mem][coal_stall] = 112534
gpgpu_stall_shd_mem[gl_mem][data_port_stall] = 0
gpgpu_stall_shd_mem[g_mem_ld][mshr_rc] = 0
gpgpu_stall_shd_mem[g_mem_ld][icnt_rc] = 0
gpgpu_stall_shd_mem[g_mem_ld][wb_icnt_rc] = 0
gpgpu_stall_shd_mem[g_mem_ld][wb_rsrv_fail] = 0
gpgpu_stall_shd_mem[g_mem_st][mshr_rc] = 0
gpgpu_stall_shd_mem[g_mem_st][icnt_rc] = 0
gpgpu_stall_shd_mem[g_mem_st][wb_icnt_rc] = 0
gpgpu_stall_shd_mem[g_mem_st][wb_rsrv_fail] = 0
gpgpu_stall_shd_mem[l_mem_ld][mshr_rc] = 0
gpgpu_stall_shd_mem[l_mem_ld][icnt_rc] = 0
gpgpu_stall_shd_mem[l_mem_ld][wb_icnt_rc] = 0
gpgpu_stall_shd_mem[l_mem_ld][wb_rsrv_fail] = 0
gpgpu_stall_shd_mem[l_mem_st][mshr_rc] = 0
gpgpu_stall_shd_mem[l_mem_st][icnt_rc] = 0
gpgpu_stall_shd_mem[l_mem_ld][wb_icnt_rc] = 0
gpgpu_stall_shd_mem[l_mem_ld][wb_rsrv_fail] = 0
gpu_reg_bank_conflict_stalls = 0
Warp Occupancy Distribution:
Stall:86769	W0_Idle:23500	W0_Scoreboard:42120	W1:1617	W2:1706	W3:1602	W4:1573	W5:1910	W6:2148	W7:2029	W8:1839	W9:69677	W10:1230	W11:880	W12:982	W13:1064	W14:1298	W15:978	W16:903	W17:828	W18:938	W19:914	W20:652	W21:625	W22:705	W23:1064	W24:1036	W25:1062	W26:1332	W27:1100	W28:1093	W29:981	W30:664	W31:754	W32:331573
traffic_breakdown_coretomem[CONST_ACC_R] = 360 {8:45,}
traffic_breakdown_coretomem[GLOBAL_ACC_R] = 35752 {8:4469,}
traffic_breakdown_coretomem[GLOBAL_ACC_W] = 172800 {40:499,72:504,136:857,}
traffic_breakdown_coretomem[INST_ACC_R] = 840 {8:105,}
traffic_breakdown_memtocore[CONST_ACC_R] = 3240 {72:45,}
traffic_breakdown_memtocore[GLOBAL_ACC_R] = 607784 {136:4469,}
traffic_breakdown_memtocore[GLOBAL_ACC_W] = 14880 {8:1860,}
traffic_breakdown_memtocore[INST_ACC_R] = 14280 {136:105,}
maxmrqlatency = 206 
maxdqlatency = 0 
maxmflatency = 670 
averagemflatency = 277 
max_icnt2mem_latency = 404 
max_icnt2sh_latency = 20758 
mrq_lat_table:1157 	293 	154 	257 	347 	227 	184 	40 	0 	0 	0 	0 	0 	0 	0 	0 	0 	0 	0 	0 	0 	0 	0 	0 	0 	0 	0 	0 	0 	0 	0 	0 	
dq_lat_table:0 	0 	0 	0 	0 	0 	0 	0 	0 	0 	0 	0 	0 	0 	0 	0 	0 	0 	0 	0 	0 	0 	0 	0 	0 	0 	0 	0 	0 	0 	0 	0 	
mf_lat_table:0 	0 	0 	0 	0 	0 	0 	2959 	3115 	300 	0 	0 	0 	0 	0 	0 	0 	0 	0 	0 	0 	0 	0 	0 	0 	0 	0 	0 	0 	0 	0 	0 	
icnt2mem_lat_table:0 	0 	0 	3941 	1173 	593 	411 	336 	25 	0 	0 	0 	0 	0 	0 	0 	0 	0 	0 	0 	0 	0 	0 	0 	
icnt2sh_lat_table:0 	0 	0 	860 	2567 	1017 	69 	1 	0 	0 	0 	0 	0 	1330 	530 	0 	0 	0 	0 	0 	0 	0 	0 	0 	
mf_lat_pw_table:0 	0 	0 	0 	0 	0 	0 	34 	6 	0 	0 	0 	0 	0 	0 	0 	0 	0 	0 	0 	0 	0 	0 	0 	0 	0 	0 	0 	0 	0 	0 	0 	
maximum concurrent accesses to same row:
dram[0]:         1         0         0         0         0         0         0         0         0         0         0         0         0         0         0         0 
dram[1]:         1         0         0         0         0         0         0         0         0         0         0         0         0         0         0         0 
dram[2]:         0         0         0         0         0         0         0         0         0         0         0         0         0         0         0         0 
dram[3]:         0         0         0         0         0         0         0         0         0         0         0         0         0         0         0         0 
dram[4]:         0         0         0         0         0         0         0         0         0         0         0         0         0         0         0         0 
dram[5]:         0         0         0         0         0         0         0         0         0         0         0         0         0         0         0         0 
maximum service time to same row:
dram[0]:       350         0         0         0      1532      1563      2006      2040      2784       841     11890     11699     13391     13504         0         0 
dram[1]:      2062         0         0         0      1551      1569      2057      1885      2910     11907     11885     11800     13666     13715         0         0 
dram[2]:      9760         0         0         0      1549      1543      2012      1988      2291     11781     12043     11628     13334     13697         0         0 
dram[3]:     10950         0         0         0      1546      1537      1793      1990      2241     11509     12002     11960     13331     13916         0         0 
dram[4]:         0         0         0         0      1541      1538      2063      1960       847     11529     11581     11957     13382     13518         0         0 
dram[5]:         0         0         0         0      1569      1534      2012      2056       851     11710     11575     12019     13563     13512         0         0 
average row accesses per activate:
dram[0]:  1.000000      -nan      -nan      -nan 10.000000 10.000000 32.000000 32.000000 49.000000 52.000000 68.000000 67.000000 61.000000 62.000000      -nan      -nan 
dram[1]:  3.000000      -nan      -nan      -nan 10.000000 10.000000 32.000000 32.000000 51.000000 55.000000 66.000000 66.000000 61.000000 59.000000      -nan      -nan 
dram[2]:  2.000000      -nan      -nan      -nan 10.000000 12.000000 32.000000 32.000000 48.000000 52.000000 72.000000 65.000000 60.000000 58.000000      -nan      -nan 
dram[3]:  1.000000      -nan      -nan      -nan 10.000000 12.000000 32.000000 32.000000 52.000000 50.000000 66.000000 68.000000 61.000000 57.000000      -nan      -nan 
dram[4]:      -nan      -nan      -nan      -nan 10.000000 12.000000 32.000000 32.000000 50.000000 54.000000 67.000000 67.000000 61.000000 57.000000      -nan      -nan 
dram[5]:      -nan      -nan      -nan      -nan 10.000000 12.000000 32.000000 32.000000 50.000000 53.000000 68.000000 65.000000 61.000000 59.000000      -nan      -nan 
average row locality = 2659/66 = 40.287880
number of total memory accesses made:
dram[0]:         0         0         0         0         0         0         0         0         0         0         0         0         0         0         0         0 
dram[1]:         0         0         0         0         0         0         0         0         0         0         0         0         0         0         0         0 
dram[2]:         0         0         0         0         0         0         0         0         0         0         0         0         0         0         0         0 
dram[3]:         0         0         0         0         0         0         0         0         0         0         0         0         0         0         0         0 
dram[4]:         0         0         0         0         0         0         0         0         0         0         0         0         0         0         0         0 
dram[5]:         0         0         0         0         0         0         0         0         0         0         0         0         0         0         0         0 
total accesses: 0
min_bank_accesses = 0!
min_chip_accesses = 0!
number of total read accesses:
dram[0]:         3         0         0         0        10        10        32        32        32        31        32        32        30        30         0         0 
dram[1]:         3         0         0         0        10        10        32        32        32        32        32        32        30        28         0         0 
dram[2]:         2         0         0         0        10        12        32        32        32        32        32        32        30        28         0         0 
dram[3]:         1         0         0         0        10        12        32        32        32        32        32        32        30        28         0         0 
dram[4]:         0         0         0         0        10        12        32        32        32        32        32        32        30        28         0         0 
dram[5]:         0         0         0         0        10        12        32        32        32        32        32        32        30        28         0         0 
total reads: 1638
min_bank_accesses = 0!
chip skew: 274/272 = 1.01
number of total write accesses:
dram[0]:         0         0         0         0         0         0         0         0        17        21        36        35        31        32         0         0 
dram[1]:         0         0         0         0         0         0         0         0        19        23        34        34        31        31         0         0 
dram[2]:         0         0         0         0         0         0         0         0        16        20        40        33        30        30         0         0 
dram[3]:         0         0         0         0         0         0         0         0        20        18        34        36        31        29         0         0 
dram[4]:         0         0         0         0         0         0         0         0        18        22        35        35        31        29         0         0 
dram[5]:         0         0         0         0         0         0         0         0        18        21        36        33        31        31         0         0 
total reads: 1021
min_bank_accesses = 0!
chip skew: 172/168 = 1.02
average mf latency per bank:
dram[0]:       1300    none      none      none        2278      2511      1859      2120       649       694       259       251       210       213    none      none  
dram[1]:       1978    none      none      none        2841      1972      2441      1701       604       517       233       236       208       212    none      none  
dram[2]:          0    none      none      none        2528      2002      2253      1751       669       497       238       221       214       208    none      none  
dram[3]:          0    none      none      none        2176      2218      1540      1636       669       514       276       219       216       202    none      none  
dram[4]:     none      none      none      none        2763      2097      2143      1665       748       540       252       217       213       204    none      none  
dram[5]:     none      none      none      none        2186      2438      1808      2099       714       538       254       239       218       196    none      none  
maximum mf latency per bank:
dram[0]:        278         0         0         0       549       611       524       584       520       452       449       489       340       416         0         0
dram[1]:        273         0         0         0       640       463       627       478       640       413       393       390       317       392         0         0
dram[2]:          0         0         0         0       539       552       608       554       619       389       410       424       367       323         0         0
dram[3]:          0         0         0         0       546       593       579       508       512       350       470       403       393       303         0         0
dram[4]:          0         0         0         0       632       573       670       431       668       425       395       353       349       293         0         0
dram[5]:          0         0         0         0       579       616       508       552       493       366       485       399       439       290         0         0

Number of Memory Banks Accessed per Memory Operation per Warp (from 0):
0	0	0	0	0	0	0	0	0	0	0	0	0	0	0	0	0	0	0	0	0	0	0	0	0	0	0	0	0	0	0	0	0	0	0	0	0	0	0	0	0	0	0	0	0	0	0	0	0	0	0	0	0	0	0	0	0	0	0	0	0	0	0	0	0	0	0	0	0	0	0	0	0	0	0	0	0	0	0	0	0	0	0	0	0	0	0	0	0	0	0	0	0	0	0	0	
Average # of Memory Banks Accessed per Memory Operation per Warp=-nan

position of mrq chosen
0	0	0	0	0	0	0	0	0	0	0	0	0	0	0	0	

average position of mrq chosen = -nan
Memory Partition 0: 
Cache L2_bank_000:
MSHR contents

Cache L2_bank_001:
MSHR contents

In Dram Latency Queue (total = 0): 
DRAM[0]: 16 bks, busW=4 BL=8 CL=12, tRRD=2 tCCD=6, tRCD=12 tRAS=28 tRP=12 tRC=40
n_cmd=27401 n_nop=26580 n_act=13 n_pre=2 n_req=446 n_rd=548 n_write=258 bw_util=0.05883
n_activity=4987 dram_eff=0.3232
bk0: 6a 27325i bk1: 0a 27396i bk2: 0a 27401i bk3: 0a 27403i bk4: 20a 27341i bk5: 20a 27310i bk6: 64a 27216i bk7: 64a 27179i bk8: 64a 26872i bk9: 62a 26735i bk10: 64a 26183i bk11: 64a 26240i bk12: 60a 26745i bk13: 60a 26716i bk14: 0a 27397i bk15: 0a 27398i 
dram_util_bins: 0 0 0 0 0 0 0 0 0 0
dram_eff_bins: 0 0 0 0 0 0 0 0 0 0
mrqq: max=16 avg=0.37714
Memory Partition 1: 
Cache L2_bank_002:
MSHR contents

Cache L2_bank_003:
MSHR contents

In Dram Latency Queue (total = 0): 
DRAM[1]: 16 bks, busW=4 BL=8 CL=12, tRRD=2 tCCD=6, tRCD=12 tRAS=28 tRP=12 tRC=40
n_cmd=27401 n_nop=26583 n_act=12 n_pre=1 n_req=445 n_rd=546 n_write=259 bw_util=0.05876
n_activity=4950 dram_eff=0.3253
bk0: 6a 27349i bk1: 0a 27397i bk2: 0a 27400i bk3: 0a 27403i bk4: 20a 27342i bk5: 20a 27336i bk6: 64a 27232i bk7: 64a 27143i bk8: 64a 26686i bk9: 64a 26575i bk10: 64a 26166i bk11: 64a 26259i bk12: 60a 26712i bk13: 56a 26628i bk14: 0a 27397i bk15: 0a 27398i 
dram_util_bins: 0 0 0 0 0 0 0 0 0 0
dram_eff_bins: 0 0 0 0 0 0 0 0 0 0
mrqq: max=16 avg=0.405934
Memory Partition 2: 
Cache L2_bank_004:
MSHR contents

Cache L2_bank_005:
MSHR contents

In Dram Latency Queue (total = 0): 
DRAM[2]: 16 bks, busW=4 BL=8 CL=12, tRRD=2 tCCD=6, tRCD=12 tRAS=28 tRP=12 tRC=40
[...]
traffic_breakdown_coretomem[CONST_ACC_R] = 600 {8:75,}
traffic_breakdown_coretomem[GLOBAL_ACC_R] = 1059456 {8:132432,}
traffic_breakdown_coretomem[GLOBAL_ACC_W] = 517200 {40:4279,72:1204,136:1907,}
traffic_breakdown_coretomem[INST_ACC_R] = 3000 {8:375,}
traffic_breakdown_memtocore[CONST_ACC_R] = 5400 {72:75,}
traffic_breakdown_memtocore[GLOBAL_ACC_R] = 18010752 {136:132432,}
traffic_breakdown_memtocore[GLOBAL_ACC_W] = 59120 {8:7390,}
traffic_breakdown_memtocore[INST_ACC_R] = 51000 {136:375,}
maxmrqlatency = 206 
maxdqlatency = 0 
maxmflatency = 670 
averagemflatency = 155 
max_icnt2mem_latency = 404 
max_icnt2sh_latency = 2069140 
mrq_lat_table:6969 	717 	238 	479 	581 	280 	268 	67 	0 	0 	0 	0 	0 	0 	0 	0 	0 	0 	0 	0 	0 	0 	0 	0 	0 	0 	0 	0 	0 	0 	0 	0 	
dq_lat_table:0 	0 	0 	0 	0 	0 	0 	0 	0 	0 	0 	0 	0 	0 	0 	0 	0 	0 	0 	0 	0 	0 	0 	0 	0 	0 	0 	0 	0 	0 	0 	0 	
mf_lat_table:0 	0 	0 	0 	0 	0 	0 	131229 	8366 	302 	0 	0 	0 	0 	0 	0 	0 	0 	0 	0 	0 	0 	0 	0 	0 	0 	0 	0 	0 	0 	0 	0 	
icnt2mem_lat_table:0 	0 	0 	136780 	1846 	806 	455 	360 	25 	0 	0 	0 	0 	0 	0 	0 	0 	0 	0 	0 	0 	0 	0 	0 	
icnt2sh_lat_table:0 	0 	0 	119544 	11087 	1797 	78 	1 	0 	0 	0 	0 	0 	1330 	740 	863 	1377 	120 	408 	792 	1760 	0 	0 	0 	
mf_lat_pw_table:0 	0 	0 	0 	0 	0 	0 	4125 	12 	0 	0 	0 	0 	0 	0 	0 	0 	0 	0 	0 	0 	0 	0 	0 	0 	0 	0 	0 	0 	0 	0 	0 	
maximum concurrent accesses to same row:
dram[0]:        69        67        68        67        28        27        32        32        49        52        68        67        63        64        57        56 
dram[1]:        68        71        69        69        30        27        32        32        51        55        66        66        63        63        57        54 
dram[2]:        68        69        67        68        31        27        32        32        48        52        72        65        62        62        55        56 
dram[3]:        68        66        71        67        29        24        32        32        52        50        66        68        63        61        51        57 
dram[4]:        69        72        67        70        25        25        32        32        50        54        67        67        63        61        57        59 
dram[5]:        67        72        66        70        26        27        32        32        50        53        68        65        63        63        53        59 
maximum service time to same row:
dram[0]:     18547     10590     51313     50269     79264     79494      4766      4906    505705    630436     11890     11699     13391     13504       282       288 
dram[1]:     19437    241647     50160     50266     79368     79922      4763      6688     11172    541987     11885     11800     13666    312041       287       285 
dram[2]:      9931     83531     50704     50916     79505     80464      4868      6642    528716   1004495     12043     11628     13334    316469      1464       378 
dram[3]:     10950    235952     50509     51019     79722     79887      4953      6585   1527702    528540     12002     11960     13331    319884       285       285 
dram[4]:     18499     21488     50462     51013     79991     79881      4878      6504   1552187    559675     11581     11957     13382     13518       285       285 
dram[5]:     10884     23207     50618     51319     79734     81338      4850      5316    531268    815750     11575     12019     13563     13512      1086       305 
average row accesses per activate:
dram[0]: 17.500000 33.666668 50.000000 49.500000  3.259259  2.966667  2.526316  2.594594  3.048780  4.655172 50.000000 49.500000 32.000000 48.000000 44.500000 44.000000 
dram[1]: 26.000000 10.900000 50.500000 50.500000  3.103448  2.870968  2.526316  2.909091  3.542857  3.771429 49.000000 49.000000 47.500000 32.333332 44.500000 43.000000 
dram[2]: 34.000000 17.833334 49.500000 50.000000  3.461539  2.935484  2.594594  2.823529  3.210526  4.133333 52.000000 48.500000 47.000000 32.000000 43.500000 44.000000 
dram[3]: 34.000000 13.000000 51.500000 49.500000  3.296296  2.933333  2.461539  2.909091  4.419355  3.444444 49.000000 50.000000 47.500000 31.666666 41.500000 44.500000 
dram[4]: 34.333332 35.333332 49.500000 51.000000  2.965517  2.933333  2.594594  2.823529  3.621622  3.735294 49.500000 49.500000 47.500000 31.666666 44.500000 45.500000 
dram[5]: 33.666668 35.333332 49.000000 51.000000  3.000000  3.214286  2.594594  2.909091  3.307692  3.600000 50.000000 48.500000 47.500000 32.333332 42.500000 45.500000 
average row locality = 9599/1354 = 7.089365
number of total memory accesses made:
dram[0]:         0         0         0         0         0         0         0         0         0         0         0         0         0         0         0         0 
dram[1]:         0         0         0         0         0         0         0         0         0         0         0         0         0         0         0         0 
dram[2]:         0         0         0         0         0         0         0         0         0         0         0         0         0         0         0         0 
dram[3]:         0         0         0         0         0         0         0         0         0         0         0         0         0         0         0         0 
dram[4]:         0         0         0         0         0         0         0         0         0         0         0         0         0         0         0         0 
dram[5]:         0         0         0         0         0         0         0         0         0         0         0         0         0         0         0         0 
total accesses: 0
min_bank_accesses = 0!
min_chip_accesses = 0!
number of total read accesses:
dram[0]:        68        66        64        64        74        74        96        96        94        93        64        64        64        64        64        64 
dram[1]:        68        68        64        64        74        74        96        96        94        93        64        64        64        64        64        64 
dram[2]:        66        68        64        64        74        76        96        96        94        92        64        64        64        64        64        64 
dram[3]:        66        68        64        64        74        76        96        96        94        92        64        64        64        64        64        64 
dram[4]:        66        66        64        64        74        76        96        96        94        92        64        64        64        64        64        64 
dram[5]:        66        66        64        64        74        76        96        96        94        92        64        64        64        64        64        64 
total reads: 7040
bank skew: 96/64 = 1.50
chip skew: 1175/1172 = 1.00
number of total write accesses:
dram[0]:        37        35        36        35        14        15         0         0        31        42        36        35        32        32        25        24 
dram[1]:        36        41        37        37        16        15         0         0        30        39        34        34        31        33        25        22 
dram[2]:        36        39        35        36        16        15         0         0        28        32        40        33        30        32        23        24 
dram[3]:        36        36        39        35        15        12         0         0        43        32        34        36        31        31        19        25 
dram[4]:        37        40        35        38        12        12         0         0        40        35        35        35        31        31        25        27 
dram[5]:        35        40        34        38        13        14         0         0        35        34        36        33        31        33        21        27 
total reads: 2559
min_bank_accesses = 0!
chip skew: 433/419 = 1.03
average mf latency per bank:
dram[0]:       1890      1935      1934      1997      2655      2680      2991      3116      2383      2282      1969      2004      2088      2085      2228      2218
dram[1]:       1951      1775      1956      1974      2696      2611      3201      2964      2396      2289      2006      1999      2104      2081      2200      2281
dram[2]:       1912      1815      2018      1994      2655      2586      3143      3009      2417      2360      1914      2042      2146      2073      2228      2210
dram[3]:       1919      1876      1924      1972      2618      2718      2927      2994      2327      2347      2040      1981      2100      2088      2394      2202
dram[4]:       1883      1820      2025      1945      2788      2739      3091      2932      2366      2312      2004      1969      2142      2113      2200      2178
dram[5]:       1939      1844      2035      1907      2685      2698      3006      3119      2377      2270      1979      2030      2129      2074      2283      2165
maximum mf latency per bank:
dram[0]:        308       332       277       277       549       611       524       584       520       452       449       489       340       416       433       342
dram[1]:        278       475       302       487       640       523       627       505       640       507       393       390       317       464       421       475
dram[2]:        319       344       303       314       539       552       608       554       619       389       410       424       367       334       372       391
dram[3]:        345       313       282       284       546       593       579       508       512       350       470       403       393       303       374       415
dram[4]:        277       282       362       308       632       573       670       431       668       425       395       353       349       304       415       470
dram[5]:        321       338       333       320       579       616       508       552       493       412       485       399       439       302       375       483

Number of Memory Banks Accessed per Memory Operation per Warp (from 0):
0	0	0	0	0	0	0	0	0	0	0	0	0	0	0	0	0	0	0	0	0	0	0	0	0	0	0	0	0	0	0	0	0	0	0	0	0	0	0	0	0	0	0	0	0	0	0	0	0	0	0	0	0	0	0	0	0	0	0	0	0	0	0	0	0	0	0	0	0	0	0	0	0	0	0	0	0	0	0	0	0	0	0	0	0	0	0	0	0	0	0	0	0	0	0	0	
Average # of Memory Banks Accessed per Memory Operation per Warp=-nan

position of mrq chosen
0	0	0	0	0	0	0	0	0	0	0	0	0	0	0	0	

average position of mrq chosen = -nan
Memory Partition 0: 
Cache L2_bank_000:
MSHR contents

Cache L2_bank_001:
MSHR contents

In Dram Latency Queue (total = 0): 
DRAM[0]: 16 bks, busW=4 BL=8 CL=12, tRRD=2 tCCD=6, tRCD=12 tRAS=28 tRP=12 tRC=40
n_cmd=2731263 n_nop=2727861 n_act=228 n_pre=212 n_req=1602 n_rd=2346 n_write=616 bw_util=0.002169
n_activity=27505 dram_eff=0.2154
bk0: 136a 2730395i bk1: 132a 2730509i bk2: 128a 2730589i bk3: 128a 2730607i bk4: 148a 2730186i bk5: 148a 2730070i bk6: 192a 2729877i bk7: 192a 2729811i bk8: 188a 2729312i bk9: 186a 2729414i bk10: 128a 2729779i bk11: 128a 2729870i bk12: 128a 2730323i bk13: 128a 2730388i bk14: 128a 2730550i bk15: 128a 2730605i 
dram_util_bins: 0 0 0 0 0 0 0 0 0 0
dram_eff_bins: 0 0 0 0 0 0 0 0 0 0
mrqq: max=16 avg=0.00568272
Memory Partition 1: 
Cache L2_bank_002:
MSHR contents

Cache L2_bank_003:
MSHR contents

In Dram Latency Queue (total = 0): 
DRAM[1]: 16 bks, busW=4 BL=8 CL=12, tRRD=2 tCCD=6, tRCD=12 tRAS=28 tRP=12 tRC=40
n_cmd=2731263 n_nop=2727834 n_act=233 n_pre=217 n_req=1605 n_rd=2350 n_write=629 bw_util=0.002181
n_activity=27767 dram_eff=0.2146
bk0: 136a 2730470i bk1: 136a 2730328i bk2: 128a 2730575i bk3: 128a 2730557i bk4: 148a 2730116i bk5: 148a 2730012i bk6: 192a 2729907i bk7: 192a 2729882i bk8: 188a 2729285i bk9: 186a 2729105i bk10: 128a 2729747i bk11: 128a 2729897i bk12: 128a 2730371i bk13: 128a 2730241i bk14: 128a 2730564i bk15: 128a 2730627i 
dram_util_bins: 0 0 0 0 0 0 0 0 0 0
dram_eff_bins: 0 0 0 0 0 0 0 0 0 0
mrqq: max=16 avg=0.00573068
Memory Partition 2: 
Cache L2_bank_004:
MSHR contents

Cache L2_bank_005:
MSHR contents

In Dram Latency Queue (total = 0): 
DRAM[2]: 16 bks, busW=4 BL=8 CL=12, tRRD=2 tCCD=6, tRCD=12 tRAS=28 tRP=12 tRC=40
n_cmd=2731263 n_nop=2727868 n_act=222 n_pre=206 n_req=1593 n_rd=2348 n_write=619 bw_util=0.002173
n_activity=27037 dram_eff=0.2195
bk0: 132a 2730518i bk1: 136a 2730401i bk2: 128a 2730580i bk3: 128a 2730598i bk4: 148a 2730206i bk5: 152a 2730036i bk6: 192a 2729913i bk7: 192a 2729906i bk8: 188a 2729228i bk9: 184a 2729320i bk10: 128a 2729762i bk11: 128a 2729970i bk12: 128a 2730377i bk13: 128a 2730365i bk14: 128a 2730609i bk15: 128a 2730585i 
dram_util_bins: 0 0 0 0 0 0 0 0 0 0
dram_eff_bins: 0 0 0 0 0 0 0 0 0 0
mrqq: max=16 avg=0.0050775
Memory Partition 3: 
Cache L2_bank_006:
MSHR contents

Cache L2_bank_007:
MSHR contents

In Dram Latency Queue (total = 0): 
DRAM[3]: 16 bks, busW=4 BL=8 CL=12, tRRD=2 tCCD=6, tRCD=12 tRAS=28 tRP=12 tRC=40
n_cmd=2731263 n_nop=2727870 n_act=224 n_pre=208 n_req=1598 n_rd=2348 n_write=613 bw_util=0.002168
n_activity=27405 dram_eff=0.2161
bk0: 132a 2730547i bk1: 136a 2730389i bk2: 128a 2730550i bk3: 128a 2730588i bk4: 148a 2730180i bk5: 152a 2730116i bk6: 192a 2729865i bk7: 192a 2729964i bk8: 188a 2729329i bk9: 184a 2729178i bk10: 128a 2729724i bk11: 128a 2729884i bk12: 128a 2730374i bk13: 128a 2730371i bk14: 128a 2730592i bk15: 128a 2730539i 
dram_util_bins: 0 0 0 0 0 0 0 0 0 0
dram_eff_bins: 0 0 0 0 0 0 0 0 0 0
mrqq: max=16 avg=0.00508922
Memory Partition 4: 
Cache L2_bank_008:
MSHR contents

Cache L2_bank_009:
MSHR contents

In Dram Latency Queue (total = 0): 
DRAM[4]: 16 bks, busW=4 BL=8 CL=12, tRRD=2 tCCD=6, tRCD=12 tRAS=28 tRP=12 tRC=40
n_cmd=2731263 n_nop=2727854 n_act=224 n_pre=208 n_req=1605 n_rd=2344 n_write=633 bw_util=0.00218
n_activity=27293 dram_eff=0.2182
bk0: 132a 2730489i bk1: 132a 2730499i bk2: 128a 2730602i bk3: 128a 2730595i bk4: 148a 2730157i bk5: 152a 2730064i bk6: 192a 2729925i bk7: 192a 2729981i bk8: 188a 2729136i bk9: 184a 2729355i bk10: 128a 2729758i bk11: 128a 2729913i bk12: 128a 2730408i bk13: 128a 2730364i bk14: 128a 2730581i bk15: 128a 2730511i 
dram_util_bins: 0 0 0 0 0 0 0 0 0 0
dram_eff_bins: 0 0 0 0 0 0 0 0 0 0
mrqq: max=16 avg=0.00509654
Memory Partition 5: 
Cache L2_bank_010:
MSHR contents

Cache L2_bank_011:
MSHR contents

In Dram Latency Queue (total = 0): 
DRAM[5]: 16 bks, busW=4 BL=8 CL=12, tRRD=2 tCCD=6, tRCD=12 tRAS=28 tRP=12 tRC=40
n_cmd=2731263 n_nop=2727862 n_act=224 n_pre=208 n_req=1596 n_rd=2344 n_write=625 bw_util=0.002174
n_activity=27360 dram_eff=0.217
bk0: 132a 2730482i bk1: 132a 2730463i bk2: 128a 2730576i bk3: 128a 2730590i bk4: 148a 2730199i bk5: 152a 2730157i bk6: 192a 2729933i bk7: 192a 2729958i bk8: 188a 2729197i bk9: 184a 2729267i bk10: 128a 2729794i bk11: 128a 2729876i bk12: 128a 2730341i bk13: 128a 2730391i bk14: 128a 2730708i bk15: 128a 2730532i 
dram_util_bins: 0 0 0 0 0 0 0 0 0 0
dram_eff_bins: 0 0 0 0 0 0 0 0 0 0
mrqq: max=16 avg=0.00554029

========= L2 cache stats =========
L2_cache_bank[0]: Access = 11627, Miss = 588, Miss_rate = 0.051, Pending_hits = 161, Reservation_fails = 881
L2_cache_bank[1]: Access = 11732, Miss = 585, Miss_rate = 0.050, Pending_hits = 162, Reservation_fails = 1135
L2_cache_bank[2]: Access = 11665, Miss = 588, Miss_rate = 0.050, Pending_hits = 144, Reservation_fails = 1154
L2_cache_bank[3]: Access = 11691, Miss = 587, Miss_rate = 0.050, Pending_hits = 166, Reservation_fails = 824
L2_cache_bank[4]: Access = 11662, Miss = 586, Miss_rate = 0.050, Pending_hits = 144, Reservation_fails = 611
L2_cache_bank[5]: Access = 11679, Miss = 588, Miss_rate = 0.050, Pending_hits = 146, Reservation_fails = 943
L2_cache_bank[6]: Access = 11734, Miss = 586, Miss_rate = 0.050, Pending_hits = 155, Reservation_fails = 765
L2_cache_bank[7]: Access = 11708, Miss = 588, Miss_rate = 0.050, Pending_hits = 153, Reservation_fails = 620
L2_cache_bank[8]: Access = 11755, Miss = 586, Miss_rate = 0.050, Pending_hits = 162, Reservation_fails = 971
L2_cache_bank[9]: Access = 11654, Miss = 586, Miss_rate = 0.050, Pending_hits = 161, Reservation_fails = 662
L2_cache_bank[10]: Access = 11744, Miss = 586, Miss_rate = 0.050, Pending_hits = 167, Reservation_fails = 930
L2_cache_bank[11]: Access = 11621, Miss = 586, Miss_rate = 0.050, Pending_hits = 152, Reservation_fails = 734
L2_total_cache_accesses = 140272
L2_total_cache_misses = 7040
L2_total_cache_miss_rate = 0.0502
L2_total_cache_pending_hits = 1873
L2_total_cache_reservation_fails = 10230
L2_total_cache_breakdown:
	L2_cache_stats_breakdown[GLOBAL_ACC_R][HIT] = 126089
	L2_cache_stats_breakdown[GLOBAL_ACC_R][HIT_RESERVED] = 1410
	L2_cache_stats_breakdown[GLOBAL_ACC_R][MISS] = 4933
	L2_cache_stats_breakdown[GLOBAL_ACC_R][RESERVATION_FAIL] = 8445
	L2_cache_stats_breakdown[CONST_ACC_R][HIT] = 63
	L2_cache_stats_breakdown[CONST_ACC_R][HIT_RESERVED] = 9
	L2_cache_stats_breakdown[CONST_ACC_R][MISS] = 3
	L2_cache_stats_breakdown[CONST_ACC_R][RESERVATION_FAIL] = 314
	L2_cache_stats_breakdown[GLOBAL_ACC_W][HIT] = 4905
	L2_cache_stats_breakdown[GLOBAL_ACC_W][HIT_RESERVED] = 406
	L2_cache_stats_breakdown[GLOBAL_ACC_W][MISS] = 2079
	L2_cache_stats_breakdown[GLOBAL_ACC_W][RESERVATION_FAIL] = 312
	L2_cache_stats_breakdown[INST_ACC_R][HIT] = 302
	L2_cache_stats_breakdown[INST_ACC_R][HIT_RESERVED] = 48
	L2_cache_stats_breakdown[INST_ACC_R][MISS] = 25
	L2_cache_stats_breakdown[INST_ACC_R][RESERVATION_FAIL] = 1159
L2_cache_data_port_util = 0.021
L2_cache_fill_port_util = 0.001

icnt_total_pkts_mem_to_simt=671650
icnt_total_pkts_simt_to_mem=154587
LD_mem_lat_dist  0 0 0 0 0 0 0 0 0 0 0 0 0 0 0 0 0 0 0 0 0 0 0 0 0 0 0
ST_mem_lat_dist  0 0 0 0 0 0 0 0 0 0 0 0 0 0 0 0 0 0 0 0 0 0 0 0 0 0 0
----------------------------Interconnect-DETAILS--------------------------------
Class 0:
Packet latency average = 11.0695
	minimum = 6
	maximum = 149
Network latency average = 10.0429
	minimum = 6
	maximum = 140
Slowest packet = 278944
Flit latency average = 8.10341
	minimum = 6
	maximum = 139
Slowest flit = 822171
Fragmentation average = 0
	minimum = 0
	maximum = 0
Injected packet rate average = 0.00492254
	minimum = 0.00399354 (at node 6)
	maximum = 0.00753836 (at node 16)
Accepted packet rate average = 0.00492254
	minimum = 0.00399354 (at node 6)
	maximum = 0.00753836 (at node 16)
Injected flit rate average = 0.0133716
	minimum = 0.00475635 (at node 6)
	maximum = 0.0271471 (at node 26)
Accepted flit rate average= 0.0133716
	minimum = 0.00430764 (at node 19)
	maximum = 0.0203715 (at node 0)
Injected packet length average = 2.71641
Accepted packet length average = 2.71641
Total in-flight flits = 0 (0 measured)
====== Overall Traffic Statistics ======
====== Traffic class 0 ======
Packet latency average = 12.0312 (4 samples)
	minimum = 6 (4 samples)
	maximum = 109.5 (4 samples)
Network latency average = 10.8271 (4 samples)
	minimum = 6 (4 samples)
	maximum = 105.5 (4 samples)
Flit latency average = 8.996 (4 samples)
	minimum = 6 (4 samples)
	maximum = 104.25 (4 samples)
Fragmentation average = 0.000771724 (4 samples)
	minimum = 0 (4 samples)
	maximum = 10 (4 samples)
Injected packet rate average = 0.0118636 (4 samples)
	minimum = 0.00989768 (4 samples)
	maximum = 0.0145252 (4 samples)
Accepted packet rate average = 0.0118636 (4 samples)
	minimum = 0.00989768 (4 samples)
	maximum = 0.0145252 (4 samples)
Injected flit rate average = 0.0336882 (4 samples)
	minimum = 0.0147518 (4 samples)
	maximum = 0.0593805 (4 samples)
Accepted flit rate average = 0.0336882 (4 samples)
	minimum = 0.0189762 (4 samples)
	maximum = 0.0475613 (4 samples)
Injected packet size average = 2.83963 (4 samples)
Accepted packet size average = 2.83963 (4 samples)
Hops average = 1 (4 samples)
----------------------------END-of-Interconnect-DETAILS-------------------------


gpgpu_simulation_time = 0 days, 0 hrs, 18 min, 47 sec (1127 sec)
gpgpu_simulation_rate = 69521 (inst/sec)
gpgpu_simulation_rate = 1835 (cycle/sec)
7 2 1 0 4 1 4 9 6 9 0 6 9 0 1 5 9 7 3 4 9 6 6 5 4 0 7 4
