

        *** GPGPU-Sim Simulator Version 3.2.2  [build 0] ***


GPGPU-Sim PTX: simulation mode 0 (can change with PTX_SIM_MODE_FUNC environment variable:
               1=functional simulation only, 0=detailed performance simulator)
GPGPU-Sim: Configuration options:

-network_mode                           1 # Interconnection network mode
-inter_config_file   config_fermi_islip.icnt # Interconnection network config file
-gpgpu_ptx_use_cuobjdump                    1 # Use cuobjdump to extract ptx and sass from binaries
-gpgpu_experimental_lib_support                    0 # Try to extract code from cuda libraries [Broken because of unknown cudaGetExportTable]
-gpgpu_ptx_convert_to_ptxplus                    0 # Convert SASS (native ISA) to ptxplus and run ptxplus
-gpgpu_ptx_force_max_capability                   20 # Force maximum compute capability
-gpgpu_ptx_inst_debug_to_file                    0 # Dump executed instructions' debug information to file
-gpgpu_ptx_inst_debug_file       inst_debug.txt # Executed instructions' debug output file
-gpgpu_ptx_inst_debug_thread_uid                    1 # Thread UID for executed instructions' debug output
-gpgpu_simd_model                       1 # 1 = post-dominator
-gpgpu_shader_core_pipeline              1536:32 # shader core pipeline config, i.e., {<nthread>:<warpsize>}
-gpgpu_tex_cache:l1  4:128:24,L:R:m:N:L,F:128:4,128:2 # per-shader L1 texture cache  (READ-ONLY) config  {<nsets>:<bsize>:<assoc>,<rep>:<wr>:<alloc>:<wr_alloc>,<mshr>:<N>:<merge>,<mq>:<rf>}
-gpgpu_const_cache:l1 64:64:2,L:R:f:N:L,A:2:32,4 # per-shader L1 constant memory cache  (READ-ONLY) config  {<nsets>:<bsize>:<assoc>,<rep>:<wr>:<alloc>:<wr_alloc>,<mshr>:<N>:<merge>,<mq>} 
-gpgpu_cache:il1     4:128:4,L:R:f:N:L,A:2:32,4 # shader L1 instruction cache config  {<nsets>:<bsize>:<assoc>,<rep>:<wr>:<alloc>:<wr_alloc>,<mshr>:<N>:<merge>,<mq>} 
-gpgpu_cache:dl1     32:128:4,L:L:m:N:H,A:32:8,8 # per-shader L1 data cache config  {<nsets>:<bsize>:<assoc>,<rep>:<wr>:<alloc>:<wr_alloc>,<mshr>:<N>:<merge>,<mq> | none}
-gpgpu_cache:dl1PrefL1                 none # per-shader L1 data cache config  {<nsets>:<bsize>:<assoc>,<rep>:<wr>:<alloc>:<wr_alloc>,<mshr>:<N>:<merge>,<mq> | none}
-gpgpu_cache:dl1PreShared                 none # per-shader L1 data cache config  {<nsets>:<bsize>:<assoc>,<rep>:<wr>:<alloc>:<wr_alloc>,<mshr>:<N>:<merge>,<mq> | none}
-gmem_skip_L1D                          0 # global memory access skip L1D cache (implements -Xptxas -dlcm=cg, default=no skip)
-gpgpu_perfect_mem                      0 # enable perfect memory mode (no cache miss)
-n_regfile_gating_group                    4 # group of lanes that should be read/written together)
-gpgpu_clock_gated_reg_file                    0 # enable clock gated reg file for power calculations
-gpgpu_clock_gated_lanes                    0 # enable clock gated lanes for power calculations
-gpgpu_shader_registers                32768 # Number of registers per shader core. Limits number of concurrent CTAs. (default 8192)
-gpgpu_shader_cta                       8 # Maximum number of concurrent CTAs in shader (default 8)
-gpgpu_num_cta_barriers                   16 # Maximum number of named barriers per CTA (default 16)
-gpgpu_n_clusters                      15 # number of processing clusters
-gpgpu_n_cores_per_cluster                    1 # number of simd cores per cluster
-gpgpu_n_cluster_ejection_buffer_size                    8 # number of packets in ejection buffer
-gpgpu_n_ldst_response_buffer_size                    2 # number of response packets in ld/st unit ejection buffer
-gpgpu_shmem_size                   16384 # Size of shared memory per shader core (default 16kB)
-gpgpu_shmem_size                   49152 # Size of shared memory per shader core (default 16kB)
-gpgpu_shmem_size_PrefL1                16384 # Size of shared memory per shader core (default 16kB)
-gpgpu_shmem_size_PrefShared                16384 # Size of shared memory per shader core (default 16kB)
-gpgpu_shmem_num_banks                   32 # Number of banks in the shared memory in each shader core (default 16)
-gpgpu_shmem_limited_broadcast                    0 # Limit shared memory to do one broadcast per cycle (default on)
-gpgpu_shmem_warp_parts                    1 # Number of portions a warp is divided into for shared memory bank conflict check 
-gpgpu_warpdistro_shader                   -1 # Specify which shader core to collect the warp size distribution from
-gpgpu_warp_issue_shader                    0 # Specify which shader core to collect the warp issue distribution from
-gpgpu_local_mem_map                    1 # Mapping from local memory space address to simulated GPU physical address space (default = enabled)
-gpgpu_num_reg_banks                   16 # Number of register banks (default = 8)
-gpgpu_reg_bank_use_warp_id                    0 # Use warp ID in mapping registers to banks (default = off)
-gpgpu_operand_collector_num_units_sp                    6 # number of collector units (default = 4)
-gpgpu_operand_collector_num_units_sfu                    8 # number of collector units (default = 4)
-gpgpu_operand_collector_num_units_mem                    2 # number of collector units (default = 2)
-gpgpu_operand_collector_num_units_gen                    0 # number of collector units (default = 0)
-gpgpu_operand_collector_num_in_ports_sp                    2 # number of collector unit in ports (default = 1)
-gpgpu_operand_collector_num_in_ports_sfu                    1 # number of collector unit in ports (default = 1)
-gpgpu_operand_collector_num_in_ports_mem                    1 # number of collector unit in ports (default = 1)
-gpgpu_operand_collector_num_in_ports_gen                    0 # number of collector unit in ports (default = 0)
-gpgpu_operand_collector_num_out_ports_sp                    2 # number of collector unit in ports (default = 1)
-gpgpu_operand_collector_num_out_ports_sfu                    1 # number of collector unit in ports (default = 1)
-gpgpu_operand_collector_num_out_ports_mem                    1 # number of collector unit in ports (default = 1)
-gpgpu_operand_collector_num_out_ports_gen                    0 # number of collector unit in ports (default = 0)
-gpgpu_coalesce_arch                   13 # Coalescing arch (default = 13, anything else is off for now)
-gpgpu_num_sched_per_core                    2 # Number of warp schedulers per core
-gpgpu_max_insn_issue_per_warp                    1 # Max number of instructions that can be issued per warp in one cycle by scheduler
-gpgpu_simt_core_sim_order                    1 # Select the simulation order of cores in a cluster (0=Fix, 1=Round-Robin)
-gpgpu_pipeline_widths        2,1,1,2,1,1,2 # Pipeline widths ID_OC_SP,ID_OC_SFU,ID_OC_MEM,OC_EX_SP,OC_EX_SFU,OC_EX_MEM,EX_WB
-gpgpu_num_sp_units                     2 # Number of SP units (default=1)
-gpgpu_num_sfu_units                    1 # Number of SF units (default=1)
-gpgpu_num_mem_units                    1 # Number if ldst units (default=1) WARNING: not hooked up to anything
-gpgpu_scheduler                      gto # Scheduler configuration: < lrr | gto | two_level_active > If two_level_active:<num_active_warps>:<inner_prioritization>:<outer_prioritization>For complete list of prioritization values see shader.h enum scheduler_prioritization_typeDefault: gto
-gpgpu_dram_scheduler                    1 # 0 = fifo, 1 = FR-FCFS (defaul)
-gpgpu_dram_partition_queues              8:8:8:8 # i2$:$2d:d2$:$2i
-l2_ideal                               0 # Use a ideal L2 cache that always hit
-gpgpu_cache:dl2     64:128:32,L:B:m:W:L,A:32:4,4:0,32 # unified banked L2 data cache config  {<nsets>:<bsize>:<assoc>,<rep>:<wr>:<alloc>:<wr_alloc>,<mshr>:<N>:<merge>,<mq>}
-gpgpu_cache:dl2_texture_only                    0 # L2 cache used for texture only
-gpgpu_n_mem                            6 # number of memory modules (e.g. memory controllers) in gpu
-gpgpu_n_sub_partition_per_mchannel                    2 # number of memory subpartition in each memory module
-gpgpu_n_mem_per_ctrlr                    2 # number of memory chips per memory controller
-gpgpu_memlatency_stat                   14 # track and display latency statistics 0x2 enables MC, 0x4 enables queue logs
-gpgpu_frfcfs_dram_sched_queue_size                   16 # 0 = unlimited (default); # entries per chip
-gpgpu_dram_return_queue_size                  116 # 0 = unlimited (default); # entries per chip
-gpgpu_dram_buswidth                    4 # default = 4 bytes (8 bytes per cycle at DDR)
-gpgpu_dram_burst_length                    8 # Burst length of each DRAM request (default = 4 data bus cycle)
-dram_data_command_freq_ratio                    4 # Frequency ratio between DRAM data bus and command bus (default = 2 times, i.e. DDR)
-gpgpu_dram_timing_opt nbk=16:CCD=2:RRD=6:RCD=12:RAS=28:RP=12:RC=40: CL=12:WL=4:CDLR=5:WR=12:nbkgrp=4:CCDL=3:RTPL=2 # DRAM timing parameters = {nbk:tCCD:tRRD:tRCD:tRAS:tRP:tRC:CL:WL:tCDLR:tWR:nbkgrp:tCCDL:tRTPL}
-rop_latency                          120 # ROP queue latency (default 85)
-dram_latency                         100 # DRAM latency (default 30)
-gpgpu_mem_addr_mapping dramid@8;00000000.00000000.00000000.00000000.0000RRRR.RRRRRRRR.BBBCCCCB.CCSSSSSS # mapping memory address to dram model {dramid@<start bit>;<memory address map>}
-gpgpu_mem_addr_test                    0 # run sweep test to check address mapping for aliased address
-gpgpu_mem_address_mask                    1 # 0 = old addressing mask, 1 = new addressing mask, 2 = new add. mask + flipped bank sel and chip sel bits
-gpuwattch_xml_file  gpuwattch_gtx480.xml # GPUWattch XML file
-power_simulation_enabled                    1 # Turn on power simulator (1=On, 0=Off)
-power_per_cycle_dump                    0 # Dump detailed power output each cycle
-power_trace_enabled                    0 # produce a file for the power trace (1=On, 0=Off)
-power_trace_zlevel                     6 # Compression level of the power trace output log (0=no comp, 9=highest)
-steady_power_levels_enabled                    0 # produce a file for the steady power levels (1=On, 0=Off)
-steady_state_definition                  8:4 # allowed deviation:number of samples
-gpgpu_max_cycle                        0 # terminates gpu simulation early (0 = no limit)
-gpgpu_max_insn                         0 # terminates gpu simulation early (0 = no limit)
-gpgpu_max_cta                          0 # terminates gpu simulation early (0 = no limit)
-gpgpu_runtime_stat                   500 # display runtime statistics such as dram utilization {<freq>:<flag>}
-liveness_message_freq                    1 # Minimum number of seconds between simulation liveness messages (0 = always print)
-gpgpu_flush_l1_cache                    0 # Flush L1 cache at the end of each kernel call
-gpgpu_flush_l2_cache                    0 # Flush L2 cache at the end of each kernel call
-gpgpu_deadlock_detect                    1 # Stop the simulation at deadlock (1=on (default), 0=off)
-gpgpu_ptx_instruction_classification                    0 # if enabled will classify ptx instruction types per kernel (Max 255 kernels now)
-gpgpu_ptx_sim_mode                     0 # Select between Performance (default) or Functional simulation (1)
-gpgpu_clock_domains 700.0:700.0:700.0:924.0 # Clock Domain Frequencies in MhZ {<Core Clock>:<ICNT Clock>:<L2 Clock>:<DRAM Clock>}
-gpgpu_max_concurrent_kernel                    8 # maximum kernels that can run concurrently on GPU
-gpgpu_cflog_interval                    0 # Interval between each snapshot in control flow logger
-visualizer_enabled                     0 # Turn on visualizer output (1=On, 0=Off)
-visualizer_outputfile                 NULL # Specifies the output log file for visualizer
-visualizer_zlevel                      6 # Compression level of the visualizer output log (0=no comp, 9=highest)
-trace_enabled                          0 # Turn on traces
-trace_components                    none # comma seperated list of traces to enable. Complete list found in trace_streams.tup. Default none
-trace_sampling_core                    0 # The core which is printed using CORE_DPRINTF. Default 0
-trace_sampling_memory_partition                   -1 # The memory partition which is printed using MEMPART_DPRINTF. Default -1 (i.e. all)
-enable_ptx_file_line_stats                    1 # Turn on PTX source line statistic profiling. (1 = On)
-ptx_line_stats_filename gpgpu_inst_stats.txt # Output file for PTX source line statistics.
-save_embedded_ptx                      0 # saves ptx files embedded in binary as <n>.ptx
-keep                                   0 # keep intermediate files created by GPGPU-Sim when interfacing with external programs
-gpgpu_ptx_save_converted_ptxplus                    0 # Saved converted ptxplus to a file
-ptx_opcode_latency_int         4,13,4,5,145 # Opcode latencies for integers <ADD,MAX,MUL,MAD,DIV>Default 1,1,19,25,145
-ptx_opcode_latency_fp          4,13,4,5,39 # Opcode latencies for single precision floating points <ADD,MAX,MUL,MAD,DIV>Default 1,1,1,1,30
-ptx_opcode_latency_dp         8,19,8,8,330 # Opcode latencies for double precision floating points <ADD,MAX,MUL,MAD,DIV>Default 8,8,8,8,335
-ptx_opcode_initiation_int            1,2,2,1,8 # Opcode initiation intervals for integers <ADD,MAX,MUL,MAD,DIV>Default 1,1,4,4,32
-ptx_opcode_initiation_fp            1,2,1,1,4 # Opcode initiation intervals for single precision floating points <ADD,MAX,MUL,MAD,DIV>Default 1,1,1,1,5
-ptx_opcode_initiation_dp         8,16,8,8,130 # Opcode initiation intervals for double precision floating points <ADD,MAX,MUL,MAD,DIV>Default 8,8,8,8,130
DRAM Timing Options:
nbk                                    16 # number of banks
CCD                                     2 # column to column delay
RRD                                     6 # minimal delay between activation of rows in different banks
RCD                                    12 # row to column delay
RAS                                    28 # time needed to activate row
RP                                     12 # time needed to precharge (deactivate) row
RC                                     40 # row cycle time
CDLR                                    5 # switching from write to read (changes tWTR)
WR                                     12 # last data-in to row precharge
CL                                     12 # CAS latency
WL                                      4 # Write latency
nbkgrp                                  4 # number of bank groups
CCDL                                    3 # column to column delay between accesses to different bank groups
RTPL                                    2 # read to precharge delay between accesses to different bank groups
Total number of memory sub partition = 12
addr_dec_mask[CHIP]  = 0000000000000000 	high:64 low:0
addr_dec_mask[BK]    = 000000000000e100 	high:16 low:8
addr_dec_mask[ROW]   = 000000000fff0000 	high:28 low:16
addr_dec_mask[COL]   = 0000000000001eff 	high:13 low:0
addr_dec_mask[BURST] = 000000000000003f 	high:6 low:0
sub_partition_id_mask = 0000000000000100
GPGPU-Sim uArch: clock freqs: 700000000.000000:700000000.000000:700000000.000000:924000000.000000
GPGPU-Sim uArch: clock periods: 0.00000000142857142857:0.00000000142857142857:0.00000000142857142857:0.00000000108225108225
*** Initializing Memory Statistics ***
GPGPU-Sim uArch: interconnect node map (shaderID+MemID to icntID)
GPGPU-Sim uArch: Memory nodes ID start from index: 15
GPGPU-Sim uArch:    0   1   2   3   4
GPGPU-Sim uArch:    5   6   7   8   9
GPGPU-Sim uArch:   10  11  12  13  14
GPGPU-Sim uArch:   15  16  17  18  19
GPGPU-Sim uArch:   20  21  22  23  24
GPGPU-Sim uArch:   25  26
GPGPU-Sim uArch: interconnect node reverse map (icntID to shaderID+MemID)
GPGPU-Sim uArch: Memory nodes start from ID: 15
GPGPU-Sim uArch:    0   1   2   3   4
GPGPU-Sim uArch:    5   6   7   8   9
GPGPU-Sim uArch:   10  11  12  13  14
GPGPU-Sim uArch:   15  16  17  18  19
GPGPU-Sim uArch:   20  21  22  23  24
GPGPU-Sim uArch:   25  26
328a61d178d3e8b45ddd3c2e89e11ce0  /home/scratch/adwait/applications/benchmarks/CUDA/SCP/gpgpu_ptx_sim__SCP
GPGPU-Sim uArch: performance model initialization complete.
GPGPU-Sim PTX: __cudaRegisterFatBinary, fat_cubin_handle = 1, filename=scalarProd.cu
self exe links to: /home/scratch/adwait/applications/benchmarks/CUDA/SCP/gpgpu_ptx_sim__SCP
Running md5sum using "md5sum /home/scratch/adwait/applications/benchmarks/CUDA/SCP/gpgpu_ptx_sim__SCP "
Running cuobjdump using "$CUDA_INSTALL_PATH/bin/cuobjdump -ptx -elf -sass /home/scratch/adwait/applications/benchmarks/CUDA/SCP/gpgpu_ptx_sim__SCP > _cuobjdump_complete_output_IlNXkF"
Parsing file _cuobjdump_complete_output_IlNXkF
######### cuobjdump parser ########
## Adding new section ELF
Adding arch: sm_20
Adding identifier: scalarProd.cu
## Adding new section PTX
Adding ptx filename: _cuobjdump_1.ptx
Adding arch: sm_20
Adding identifier: scalarProd.cu
Done parsing!!!
GPGPU-Sim PTX: __cudaRegisterFunction _Z13scalarProdGPUPfS_S_ii : hostFun 0x0x40483d, fat_cubin_handle = 1
GPGPU-Sim PTX: allocating shared region for "__cuda___cuda_local_var_42747_35_non_const_accumResult32" from 0x0 to 0x1000 (shared memory space)
GPGPU-Sim PTX: instruction assembly for function '_Z13scalarProdGPUPfS_S_ii'...   done.
GPGPU-Sim PTX: finding reconvergence points for '_Z13scalarProdGPUPfS_S_ii'...
GPGPU-Sim PTX: Finding dominators for '_Z13scalarProdGPUPfS_S_ii'...
GPGPU-Sim PTX: Finding immediate dominators for '_Z13scalarProdGPUPfS_S_ii'...
GPGPU-Sim PTX: Finding postdominators for '_Z13scalarProdGPUPfS_S_ii'...
GPGPU-Sim PTX: Finding immediate postdominators for '_Z13scalarProdGPUPfS_S_ii'...
GPGPU-Sim PTX: pre-decoding instructions for '_Z13scalarProdGPUPfS_S_ii'...
GPGPU-Sim PTX: reconvergence points for _Z13scalarProdGPUPfS_S_ii...
GPGPU-Sim PTX:  1 (potential) branch divergence @  PC=0x020 (_1.ptx:70) @%p1 bra $Lt_0_6146;
GPGPU-Sim PTX:    immediate post dominator      @  PC=0x308 (_1.ptx:187) exit;
GPGPU-Sim PTX:  2 (potential) branch divergence @  PC=0x068 (_1.ptx:81) @!%p2 bra $Lt_0_6914;
GPGPU-Sim PTX:    immediate post dominator      @  PC=0x1d8 (_1.ptx:137) mov.s32 %r25, 512;
GPGPU-Sim PTX:  3 (potential) branch divergence @  PC=0x0e0 (_1.ptx:99) @%p4 bra $Lt_0_12290;
GPGPU-Sim PTX:    immediate post dominator      @  PC=0x1b0 (_1.ptx:131) st.shared.f32 [%rd6+0], %f1;
GPGPU-Sim PTX:  4 (potential) branch divergence @  PC=0x198 (_1.ptx:125) @%p5 bra $Lt_0_8194;
GPGPU-Sim PTX:    immediate post dominator      @  PC=0x1a0 (_1.ptx:126) bra.uni $Lt_0_7682;
GPGPU-Sim PTX:  5 (potential) branch divergence @  PC=0x1a0 (_1.ptx:126) bra.uni $Lt_0_7682;
GPGPU-Sim PTX:    immediate post dominator      @  PC=0x1b0 (_1.ptx:131) st.shared.f32 [%rd6+0], %f1;
GPGPU-Sim PTX:  6 (potential) branch divergence @  PC=0x1d0 (_1.ptx:135) @%p6 bra $Lt_0_7426;
GPGPU-Sim PTX:    immediate post dominator      @  PC=0x1d8 (_1.ptx:137) mov.s32 %r25, 512;
GPGPU-Sim PTX:  7 (potential) branch divergence @  PC=0x1f0 (_1.ptx:143) @%p7 bra $Lt_0_9730;
GPGPU-Sim PTX:    immediate post dominator      @  PC=0x298 (_1.ptx:169) shr.s32 %r25, %r25, 1;
GPGPU-Sim PTX:  8 (potential) branch divergence @  PC=0x290 (_1.ptx:166) @%p8 bra $Lt_0_10242;
GPGPU-Sim PTX:    immediate post dominator      @  PC=0x298 (_1.ptx:169) shr.s32 %r25, %r25, 1;
GPGPU-Sim PTX:  9 (potential) branch divergence @  PC=0x2b0 (_1.ptx:172) @%p9 bra $Lt_0_9474;
GPGPU-Sim PTX:    immediate post dominator      @  PC=0x2b8 (_1.ptx:173) @!%p3 bra $Lt_0_11010;
GPGPU-Sim PTX: 10 (potential) branch divergence @  PC=0x2b8 (_1.ptx:173) @!%p3 bra $Lt_0_11010;
GPGPU-Sim PTX:    immediate post dominator      @  PC=0x2f0 (_1.ptx:182) add.u32 %r2, %r2, %r8;
GPGPU-Sim PTX: 11 (potential) branch divergence @  PC=0x300 (_1.ptx:184) @%p10 bra $Lt_0_6658;
GPGPU-Sim PTX:    immediate post dominator      @  PC=0x308 (_1.ptx:187) exit;
GPGPU-Sim PTX: ... end of reconvergence points for _Z13scalarProdGPUPfS_S_ii
GPGPU-Sim PTX: ... done pre-decoding instructions for '_Z13scalarProdGPUPfS_S_ii'.
GPGPU-Sim PTX: finished parsing EMBEDDED .ptx file _1.ptx
Adding _cuobjdump_1.ptx with cubin handle 1
GPGPU-Sim PTX: extracting embedded .ptx to temporary file "_ptx_i9SW8Q"
Running: cat _ptx_i9SW8Q | sed 's/.version 1.5/.version 1.4/' | sed 's/, texmode_independent//' | sed 's/\(\.extern \.const\[1\] .b8 \w\+\)\[\]/\1\[1\]/' | sed 's/const\[.\]/const\[0\]/g' > _ptx2_z21jX2
GPGPU-Sim PTX: generating ptxinfo using "$CUDA_INSTALL_PATH/bin/ptxas --gpu-name=sm_20 -v _ptx2_z21jX2 --output-file  /dev/null 2> _ptx_i9SW8Qinfo"
GPGPU-Sim PTX: Kernel '_Z13scalarProdGPUPfS_S_ii' : regs=18, lmem=0, smem=4096, cmem=68
GPGPU-Sim PTX: removing ptxinfo using "rm -f _ptx_i9SW8Q _ptx2_z21jX2 _ptx_i9SW8Qinfo"
GPGPU-Sim PTX: loading globals with explicit initializers... 
GPGPU-Sim PTX: finished loading globals (0 bytes total).
GPGPU-Sim PTX: loading constants with explicit initializers...  done.
Initializing data...
...allocating CPU memory.
...allocating GPU memory.
...generating input data in CPU mem.
...copying input data to GPU mem.
Data init done.
Executing GPU kernel...
GPGPU-Sim: synchronize waiting for inactive GPU simulation
GPGPU-Sim API: Stream Manager State
GPGPU-Sim: detected inactive GPU simulation thread

GPGPU-Sim PTX: cudaLaunch for 0x0x40483d (mode=performance simulation) on stream 0
GPGPU-Sim PTX: pushing kernel '_Z13scalarProdGPUPfS_S_ii' to stream 0, gridDim= (128,1,1) blockDim = (256,1,1) 
kernel '_Z13scalarProdGPUPfS_S_ii' transfer to GPU hardware scheduler
GPGPU-Sim uArch: Shader 1 bind to kernel 1 '_Z13scalarProdGPUPfS_S_ii'
GPGPU-Sim uArch: CTA/core = 6, limited by: threads regs
GPGPU-Sim uArch: core:  1, cta: 0 initialized @(1,0)
GPGPU-Sim uArch: Shader 2 bind to kernel 1 '_Z13scalarProdGPUPfS_S_ii'
GPGPU-Sim uArch: core:  2, cta: 0 initialized @(1,0)
GPGPU-Sim uArch: Shader 3 bind to kernel 1 '_Z13scalarProdGPUPfS_S_ii'
GPGPU-Sim uArch: core:  3, cta: 0 initialized @(1,0)
GPGPU-Sim uArch: Shader 4 bind to kernel 1 '_Z13scalarProdGPUPfS_S_ii'
GPGPU-Sim uArch: core:  4, cta: 0 initialized @(1,0)
GPGPU-Sim uArch: Shader 5 bind to kernel 1 '_Z13scalarProdGPUPfS_S_ii'
GPGPU-Sim uArch: core:  5, cta: 0 initialized @(1,0)
GPGPU-Sim uArch: Shader 6 bind to kernel 1 '_Z13scalarProdGPUPfS_S_ii'
GPGPU-Sim uArch: core:  6, cta: 0 initialized @(1,0)
GPGPU-Sim uArch: Shader 7 bind to kernel 1 '_Z13scalarProdGPUPfS_S_ii'
GPGPU-Sim uArch: core:  7, cta: 0 initialized @(1,0)
GPGPU-Sim uArch: Shader 8 bind to kernel 1 '_Z13scalarProdGPUPfS_S_ii'
GPGPU-Sim uArch: core:  8, cta: 0 initialized @(1,0)
GPGPU-Sim uArch: Shader 9 bind to kernel 1 '_Z13scalarProdGPUPfS_S_ii'
GPGPU-Sim uArch: core:  9, cta: 0 initialized @(1,0)
GPGPU-Sim uArch: Shader 10 bind to kernel 1 '_Z13scalarProdGPUPfS_S_ii'
GPGPU-Sim uArch: core: 10, cta: 0 initialized @(1,0)
GPGPU-Sim uArch: Shader 11 bind to kernel 1 '_Z13scalarProdGPUPfS_S_ii'
GPGPU-Sim uArch: core: 11, cta: 0 initialized @(1,0)
GPGPU-Sim uArch: Shader 12 bind to kernel 1 '_Z13scalarProdGPUPfS_S_ii'
GPGPU-Sim uArch: core: 12, cta: 0 initialized @(1,0)
GPGPU-Sim uArch: Shader 13 bind to kernel 1 '_Z13scalarProdGPUPfS_S_ii'
GPGPU-Sim uArch: core: 13, cta: 0 initialized @(1,0)
GPGPU-Sim uArch: Shader 14 bind to kernel 1 '_Z13scalarProdGPUPfS_S_ii'
GPGPU-Sim uArch: core: 14, cta: 0 initialized @(1,0)
GPGPU-Sim uArch: Shader 0 bind to kernel 1 '_Z13scalarProdGPUPfS_S_ii'
GPGPU-Sim uArch: core:  0, cta: 0 initialized @(1,0)
GPGPU-Sim uArch: core:  1, cta: 1 initialized @(2,0)
GPGPU-Sim uArch: core:  2, cta: 1 initialized @(2,0)
GPGPU-Sim uArch: core:  3, cta: 1 initialized @(2,0)
GPGPU-Sim uArch: core:  4, cta: 1 initialized @(2,0)
GPGPU-Sim uArch: core:  5, cta: 1 initialized @(2,0)
GPGPU-Sim uArch: core:  6, cta: 1 initialized @(2,0)
GPGPU-Sim uArch: core:  7, cta: 1 initialized @(2,0)
GPGPU-Sim uArch: core:  8, cta: 1 initialized @(2,0)
GPGPU-Sim uArch: core:  9, cta: 1 initialized @(2,0)
GPGPU-Sim uArch: core: 10, cta: 1 initialized @(2,0)
GPGPU-Sim uArch: core: 11, cta: 1 initialized @(2,0)
GPGPU-Sim uArch: core: 12, cta: 1 initialized @(2,0)
GPGPU-Sim uArch: core: 13, cta: 1 initialized @(2,0)
GPGPU-Sim uArch: core: 14, cta: 1 initialized @(2,0)
GPGPU-Sim uArch: core:  0, cta: 1 initialized @(2,0)
GPGPU-Sim uArch: core:  1, cta: 2 initialized @(3,0)
GPGPU-Sim uArch: core:  2, cta: 2 initialized @(3,0)
GPGPU-Sim uArch: core:  3, cta: 2 initialized @(3,0)
GPGPU-Sim uArch: core:  4, cta: 2 initialized @(3,0)
GPGPU-Sim uArch: core:  5, cta: 2 initialized @(3,0)
GPGPU-Sim uArch: core:  6, cta: 2 initialized @(3,0)
GPGPU-Sim uArch: core:  7, cta: 2 initialized @(3,0)
GPGPU-Sim uArch: core:  8, cta: 2 initialized @(3,0)
GPGPU-Sim uArch: core:  9, cta: 2 initialized @(3,0)
GPGPU-Sim uArch: core: 10, cta: 2 initialized @(3,0)
GPGPU-Sim uArch: core: 11, cta: 2 initialized @(3,0)
GPGPU-Sim uArch: core: 12, cta: 2 initialized @(3,0)
GPGPU-Sim uArch: core: 13, cta: 2 initialized @(3,0)
GPGPU-Sim uArch: core: 14, cta: 2 initialized @(3,0)
GPGPU-Sim uArch: core:  0, cta: 2 initialized @(3,0)
GPGPU-Sim uArch: core:  1, cta: 3 initialized @(4,0)
GPGPU-Sim uArch: core:  2, cta: 3 initialized @(4,0)
GPGPU-Sim uArch: core:  3, cta: 3 initialized @(4,0)
GPGPU-Sim uArch: core:  4, cta: 3 initialized @(4,0)
GPGPU-Sim uArch: core:  5, cta: 3 initialized @(4,0)
GPGPU-Sim uArch: core:  6, cta: 3 initialized @(4,0)
GPGPU-Sim uArch: core:  7, cta: 3 initialized @(4,0)
GPGPU-Sim uArch: core:  8, cta: 3 initialized @(4,0)
GPGPU-Sim uArch: core:  9, cta: 3 initialized @(4,0)
GPGPU-Sim uArch: core: 10, cta: 3 initialized @(4,0)
GPGPU-Sim uArch: core: 11, cta: 3 initialized @(4,0)
GPGPU-Sim uArch: core: 12, cta: 3 initialized @(4,0)
GPGPU-Sim uArch: core: 13, cta: 3 initialized @(4,0)
GPGPU-Sim uArch: core: 14, cta: 3 initialized @(4,0)
GPGPU-Sim uArch: core:  0, cta: 3 initialized @(4,0)
GPGPU-Sim uArch: core:  1, cta: 4 initialized @(5,0)
GPGPU-Sim uArch: core:  2, cta: 4 initialized @(5,0)
GPGPU-Sim uArch: core:  3, cta: 4 initialized @(5,0)
GPGPU-Sim uArch: core:  4, cta: 4 initialized @(5,0)
GPGPU-Sim uArch: core:  5, cta: 4 initialized @(5,0)
GPGPU-Sim uArch: core:  6, cta: 4 initialized @(5,0)
GPGPU-Sim uArch: core:  7, cta: 4 initialized @(5,0)
GPGPU-Sim uArch: core:  8, cta: 4 initialized @(5,0)
GPGPU-Sim uArch: core:  9, cta: 4 initialized @(5,0)
GPGPU-Sim uArch: core: 10, cta: 4 initialized @(5,0)
GPGPU-Sim uArch: core: 11, cta: 4 initialized @(5,0)
GPGPU-Sim uArch: core: 12, cta: 4 initialized @(5,0)
GPGPU-Sim uArch: core: 13, cta: 4 initialized @(5,0)
GPGPU-Sim uArch: core: 14, cta: 4 initialized @(5,0)
GPGPU-Sim uArch: core:  0, cta: 4 initialized @(5,0)
GPGPU-Sim uArch: core:  1, cta: 5 initialized @(6,0)
GPGPU-Sim uArch: core:  2, cta: 5 initialized @(6,0)
GPGPU-Sim uArch: core:  3, cta: 5 initialized @(6,0)
GPGPU-Sim uArch: core:  4, cta: 5 initialized @(6,0)
GPGPU-Sim uArch: core:  5, cta: 5 initialized @(6,0)
GPGPU-Sim uArch: core:  6, cta: 5 initialized @(6,0)
GPGPU-Sim uArch: core:  7, cta: 5 initialized @(6,0)
GPGPU-Sim uArch: core:  8, cta: 5 initialized @(6,0)
GPGPU-Sim uArch: core:  9, cta: 5 initialized @(6,0)
GPGPU-Sim uArch: core: 10, cta: 5 initialized @(6,0)
GPGPU-Sim uArch: core: 11, cta: 5 initialized @(6,0)
GPGPU-Sim uArch: core: 12, cta: 5 initialized @(6,0)
GPGPU-Sim uArch: core: 13, cta: 5 initialized @(6,0)
GPGPU-Sim uArch: core: 14, cta: 5 initialized @(6,0)
GPGPU-Sim uArch: core:  0, cta: 5 initialized @(6,0)
GPGPU-Sim uArch: cycles simulated: 500  inst.: 46080 (ipc=92.2) sim_rate=46080 (inst/sec) elapsed = 0:0:00:01 / Wed May  1 12:43:21 2019
GPGPU-Sim PTX: 100000 instructions simulated : ctaid=(16,0,0) tid=(159,0,0)
GPGPU-Sim PTX: 200000 instructions simulated : ctaid=(49,0,0) tid=(127,0,0)
GPGPU-Sim PTX: 300000 instructions simulated : ctaid=(82,0,0) tid=(63,0,0)
GPGPU-Sim PTX: 400000 instructions simulated : ctaid=(71,0,0) tid=(223,0,0)
GPGPU-Sim PTX: 500000 instructions simulated : ctaid=(39,0,0) tid=(223,0,0)
GPGPU-Sim PTX: 600000 instructions simulated : ctaid=(22,0,0) tid=(31,0,0)
GPGPU-Sim PTX: 700000 instructions simulated : ctaid=(76,0,0) tid=(159,0,0)
GPGPU-Sim uArch: cycles simulated: 1500  inst.: 667232 (ipc=444.8) sim_rate=333616 (inst/sec) elapsed = 0:0:00:02 / Wed May  1 12:43:23 2019
GPGPU-Sim PTX: 800000 instructions simulated : ctaid=(13,0,0) tid=(31,0,0)
GPGPU-Sim PTX: 900000 instructions simulated : ctaid=(12,0,0) tid=(127,0,0)
GPGPU-Sim uArch: cycles simulated: 2000  inst.: 888384 (ipc=444.2) sim_rate=296128 (inst/sec) elapsed = 0:0:00:03 / Wed May  1 12:43:24 2019
GPGPU-Sim PTX: 1000000 instructions simulated : ctaid=(16,0,0) tid=(95,0,0)
GPGPU-Sim PTX: 1100000 instructions simulated : ctaid=(18,0,0) tid=(63,0,0)
GPGPU-Sim uArch: cycles simulated: 3000  inst.: 1065664 (ipc=355.2) sim_rate=266416 (inst/sec) elapsed = 0:0:00:04 / Wed May  1 12:43:25 2019
GPGPU-Sim PTX: 1200000 instructions simulated : ctaid=(57,0,0) tid=(159,0,0)
GPGPU-Sim uArch: cycles simulated: 4000  inst.: 1199232 (ipc=299.8) sim_rate=239846 (inst/sec) elapsed = 0:0:00:05 / Wed May  1 12:43:26 2019
GPGPU-Sim PTX: 1300000 instructions simulated : ctaid=(16,0,0) tid=(63,0,0)
GPGPU-Sim PTX: 1400000 instructions simulated : ctaid=(34,0,0) tid=(63,0,0)
GPGPU-Sim PTX: 1500000 instructions simulated : ctaid=(9,0,0) tid=(127,0,0)
GPGPU-Sim uArch: cycles simulated: 5000  inst.: 1431456 (ipc=286.3) sim_rate=238576 (inst/sec) elapsed = 0:0:00:06 / Wed May  1 12:43:27 2019
GPGPU-Sim PTX: 1600000 instructions simulated : ctaid=(7,0,0) tid=(223,0,0)
GPGPU-Sim PTX: 1700000 instructions simulated : ctaid=(5,0,0) tid=(127,0,0)
GPGPU-Sim uArch: cycles simulated: 6000  inst.: 1684256 (ipc=280.7) sim_rate=240608 (inst/sec) elapsed = 0:0:00:07 / Wed May  1 12:43:28 2019
GPGPU-Sim PTX: 1800000 instructions simulated : ctaid=(35,0,0) tid=(159,0,0)
GPGPU-Sim PTX: 1900000 instructions simulated : ctaid=(41,0,0) tid=(63,0,0)
GPGPU-Sim PTX: 2000000 instructions simulated : ctaid=(23,0,0) tid=(223,0,0)
GPGPU-Sim uArch: cycles simulated: 7000  inst.: 1896096 (ipc=270.9) sim_rate=237012 (inst/sec) elapsed = 0:0:00:08 / Wed May  1 12:43:29 2019
GPGPU-Sim PTX: 2100000 instructions simulated : ctaid=(19,0,0) tid=(127,0,0)
GPGPU-Sim PTX: 2200000 instructions simulated : ctaid=(21,0,0) tid=(63,0,0)
GPGPU-Sim uArch: cycles simulated: 8000  inst.: 2170688 (ipc=271.3) sim_rate=241187 (inst/sec) elapsed = 0:0:00:09 / Wed May  1 12:43:30 2019
GPGPU-Sim PTX: 2300000 instructions simulated : ctaid=(29,0,0) tid=(31,0,0)
GPGPU-Sim PTX: 2400000 instructions simulated : ctaid=(37,0,0) tid=(191,0,0)
GPGPU-Sim uArch: cycles simulated: 8500  inst.: 2293024 (ipc=269.8) sim_rate=229302 (inst/sec) elapsed = 0:0:00:10 / Wed May  1 12:43:31 2019
GPGPU-Sim PTX: 2500000 instructions simulated : ctaid=(42,0,0) tid=(223,0,0)
GPGPU-Sim PTX: 2600000 instructions simulated : ctaid=(36,0,0) tid=(255,0,0)
GPGPU-Sim uArch: cycles simulated: 9500  inst.: 2522432 (ipc=265.5) sim_rate=229312 (inst/sec) elapsed = 0:0:00:11 / Wed May  1 12:43:32 2019
GPGPU-Sim PTX: 2700000 instructions simulated : ctaid=(47,0,0) tid=(223,0,0)
GPGPU-Sim PTX: 2800000 instructions simulated : ctaid=(33,0,0) tid=(31,0,0)
GPGPU-Sim PTX: 2900000 instructions simulated : ctaid=(63,0,0) tid=(31,0,0)
GPGPU-Sim uArch: cycles simulated: 10500  inst.: 2784512 (ipc=265.2) sim_rate=232042 (inst/sec) elapsed = 0:0:00:12 / Wed May  1 12:43:33 2019
GPGPU-Sim PTX: 3000000 instructions simulated : ctaid=(22,0,0) tid=(159,0,0)
GPGPU-Sim PTX: 3100000 instructions simulated : ctaid=(7,0,0) tid=(223,0,0)
GPGPU-Sim uArch: cycles simulated: 11500  inst.: 3030944 (ipc=263.6) sim_rate=233149 (inst/sec) elapsed = 0:0:00:13 / Wed May  1 12:43:34 2019
GPGPU-Sim PTX: 3200000 instructions simulated : ctaid=(58,0,0) tid=(223,0,0)
GPGPU-Sim PTX: 3300000 instructions simulated : ctaid=(50,0,0) tid=(63,0,0)
GPGPU-Sim PTX: 3400000 instructions simulated : ctaid=(71,0,0) tid=(31,0,0)
GPGPU-Sim uArch: cycles simulated: 12500  inst.: 3258656 (ipc=260.7) sim_rate=232761 (inst/sec) elapsed = 0:0:00:14 / Wed May  1 12:43:35 2019
GPGPU-Sim PTX: 3500000 instructions simulated : ctaid=(19,0,0) tid=(191,0,0)
GPGPU-Sim PTX: 3600000 instructions simulated : ctaid=(1,0,0) tid=(127,0,0)
GPGPU-Sim uArch: cycles simulated: 13500  inst.: 3497216 (ipc=259.1) sim_rate=233147 (inst/sec) elapsed = 0:0:00:15 / Wed May  1 12:43:36 2019
GPGPU-Sim PTX: 3700000 instructions simulated : ctaid=(40,0,0) tid=(31,0,0)
GPGPU-Sim PTX: 3800000 instructions simulated : ctaid=(38,0,0) tid=(191,0,0)
GPGPU-Sim PTX: 3900000 instructions simulated : ctaid=(33,0,0) tid=(127,0,0)
GPGPU-Sim uArch: cycles simulated: 14500  inst.: 3784576 (ipc=261.0) sim_rate=236536 (inst/sec) elapsed = 0:0:00:16 / Wed May  1 12:43:37 2019
GPGPU-Sim PTX: 4000000 instructions simulated : ctaid=(47,0,0) tid=(95,0,0)
GPGPU-Sim PTX: 4100000 instructions simulated : ctaid=(4,0,0) tid=(255,0,0)
GPGPU-Sim PTX: 4200000 instructions simulated : ctaid=(11,0,0) tid=(127,0,0)
GPGPU-Sim uArch: cycles simulated: 15000  inst.: 4018816 (ipc=267.9) sim_rate=236400 (inst/sec) elapsed = 0:0:00:17 / Wed May  1 12:43:38 2019
GPGPU-Sim PTX: 4300000 instructions simulated : ctaid=(11,0,0) tid=(159,0,0)
GPGPU-Sim PTX: 4400000 instructions simulated : ctaid=(69,0,0) tid=(15,0,0)
GPGPU-Sim uArch: cycles simulated: 15500  inst.: 4254304 (ipc=274.5) sim_rate=236350 (inst/sec) elapsed = 0:0:00:18 / Wed May  1 12:43:39 2019
GPGPU-Sim PTX: 4500000 instructions simulated : ctaid=(6,0,0) tid=(223,0,0)
GPGPU-Sim PTX: 4600000 instructions simulated : ctaid=(12,0,0) tid=(115,0,0)
GPGPU-Sim PTX: 4700000 instructions simulated : ctaid=(57,0,0) tid=(89,0,0)
GPGPU-Sim PTX: 4800000 instructions simulated : ctaid=(57,0,0) tid=(146,0,0)
GPGPU-Sim PTX: 4900000 instructions simulated : ctaid=(68,0,0) tid=(169,0,0)
GPGPU-Sim uArch: cycles simulated: 16500  inst.: 4742612 (ipc=287.4) sim_rate=249611 (inst/sec) elapsed = 0:0:00:19 / Wed May  1 12:43:40 2019
GPGPU-Sim PTX: 5000000 instructions simulated : ctaid=(12,0,0) tid=(68,0,0)
GPGPU-Sim PTX: 5100000 instructions simulated : ctaid=(20,0,0) tid=(168,0,0)
GPGPU-Sim PTX: 5200000 instructions simulated : ctaid=(11,0,0) tid=(148,0,0)
GPGPU-Sim uArch: cycles simulated: 17000  inst.: 5001649 (ipc=294.2) sim_rate=250082 (inst/sec) elapsed = 0:0:00:20 / Wed May  1 12:43:41 2019
GPGPU-Sim PTX: 5300000 instructions simulated : ctaid=(29,0,0) tid=(204,0,0)
GPGPU-Sim PTX: 5400000 instructions simulated : ctaid=(6,0,0) tid=(212,0,0)
GPGPU-Sim PTX: 5500000 instructions simulated : ctaid=(11,0,0) tid=(73,0,0)
GPGPU-Sim uArch: cycles simulated: 17500  inst.: 5266948 (ipc=301.0) sim_rate=250807 (inst/sec) elapsed = 0:0:00:21 / Wed May  1 12:43:42 2019
GPGPU-Sim PTX: 5600000 instructions simulated : ctaid=(9,0,0) tid=(168,0,0)
GPGPU-Sim PTX: 5700000 instructions simulated : ctaid=(67,0,0) tid=(84,0,0)
GPGPU-Sim PTX: 5800000 instructions simulated : ctaid=(26,0,0) tid=(166,0,0)
GPGPU-Sim PTX: 5900000 instructions simulated : ctaid=(25,0,0) tid=(5,0,0)
GPGPU-Sim PTX: 6000000 instructions simulated : ctaid=(21,0,0) tid=(7,0,0)
GPGPU-Sim uArch: cycles simulated: 18500  inst.: 5722950 (ipc=309.3) sim_rate=260134 (inst/sec) elapsed = 0:0:00:22 / Wed May  1 12:43:43 2019
GPGPU-Sim PTX: 6100000 instructions simulated : ctaid=(0,0,0) tid=(17,0,0)
GPGPU-Sim PTX: 6200000 instructions simulated : ctaid=(17,0,0) tid=(135,0,0)
GPGPU-Sim uArch: cycles simulated: 19000  inst.: 5913148 (ipc=311.2) sim_rate=257093 (inst/sec) elapsed = 0:0:00:23 / Wed May  1 12:43:44 2019
GPGPU-Sim PTX: 6300000 instructions simulated : ctaid=(22,0,0) tid=(28,0,0)
GPGPU-Sim PTX: 6400000 instructions simulated : ctaid=(9,0,0) tid=(235,0,0)
GPGPU-Sim PTX: 6500000 instructions simulated : ctaid=(5,0,0) tid=(122,0,0)
GPGPU-Sim uArch: cycles simulated: 20000  inst.: 6251421 (ipc=312.6) sim_rate=260475 (inst/sec) elapsed = 0:0:00:24 / Wed May  1 12:43:45 2019
GPGPU-Sim PTX: 6600000 instructions simulated : ctaid=(28,0,0) tid=(216,0,0)
GPGPU-Sim PTX: 6700000 instructions simulated : ctaid=(61,0,0) tid=(96,0,0)
GPGPU-Sim PTX: 6800000 instructions simulated : ctaid=(26,0,0) tid=(206,0,0)
GPGPU-Sim PTX: 6900000 instructions simulated : ctaid=(29,0,0) tid=(35,0,0)
GPGPU-Sim uArch: cycles simulated: 21000  inst.: 6627866 (ipc=315.6) sim_rate=265114 (inst/sec) elapsed = 0:0:00:25 / Wed May  1 12:43:46 2019
GPGPU-Sim PTX: 7000000 instructions simulated : ctaid=(2,0,0) tid=(3,0,0)
GPGPU-Sim PTX: 7100000 instructions simulated : ctaid=(43,0,0) tid=(131,0,0)
GPGPU-Sim uArch: cycles simulated: 21500  inst.: 6804890 (ipc=316.5) sim_rate=261726 (inst/sec) elapsed = 0:0:00:26 / Wed May  1 12:43:47 2019
GPGPU-Sim PTX: 7200000 instructions simulated : ctaid=(43,0,0) tid=(163,0,0)
GPGPU-Sim PTX: 7300000 instructions simulated : ctaid=(24,0,0) tid=(131,0,0)
GPGPU-Sim PTX: 7400000 instructions simulated : ctaid=(23,0,0) tid=(163,0,0)
GPGPU-Sim PTX: 7500000 instructions simulated : ctaid=(40,0,0) tid=(131,0,0)
GPGPU-Sim uArch: cycles simulated: 22500  inst.: 7206334 (ipc=320.3) sim_rate=266901 (inst/sec) elapsed = 0:0:00:27 / Wed May  1 12:43:48 2019
GPGPU-Sim PTX: 7600000 instructions simulated : ctaid=(67,0,0) tid=(127,0,0)
GPGPU-Sim PTX: 7700000 instructions simulated : ctaid=(31,0,0) tid=(99,0,0)
GPGPU-Sim uArch: cycles simulated: 23000  inst.: 7408026 (ipc=322.1) sim_rate=264572 (inst/sec) elapsed = 0:0:00:28 / Wed May  1 12:43:49 2019
GPGPU-Sim PTX: 7800000 instructions simulated : ctaid=(35,0,0) tid=(200,0,0)
GPGPU-Sim PTX: 7900000 instructions simulated : ctaid=(52,0,0) tid=(183,0,0)
GPGPU-Sim PTX: 8000000 instructions simulated : ctaid=(18,0,0) tid=(98,0,0)
GPGPU-Sim PTX: 8100000 instructions simulated : ctaid=(33,0,0) tid=(108,0,0)
GPGPU-Sim uArch: cycles simulated: 24000  inst.: 7806256 (ipc=325.3) sim_rate=269181 (inst/sec) elapsed = 0:0:00:29 / Wed May  1 12:43:50 2019
GPGPU-Sim PTX: 8200000 instructions simulated : ctaid=(41,0,0) tid=(100,0,0)
GPGPU-Sim PTX: 8300000 instructions simulated : ctaid=(36,0,0) tid=(121,0,0)
GPGPU-Sim PTX: 8400000 instructions simulated : ctaid=(1,0,0) tid=(225,0,0)
GPGPU-Sim PTX: 8500000 instructions simulated : ctaid=(62,0,0) tid=(50,0,0)
GPGPU-Sim uArch: cycles simulated: 25000  inst.: 8144615 (ipc=325.8) sim_rate=271487 (inst/sec) elapsed = 0:0:00:30 / Wed May  1 12:43:51 2019
GPGPU-Sim PTX: 8600000 instructions simulated : ctaid=(4,0,0) tid=(12,0,0)
GPGPU-Sim uArch: cycles simulated: 25500  inst.: 8299117 (ipc=325.5) sim_rate=267713 (inst/sec) elapsed = 0:0:00:31 / Wed May  1 12:43:52 2019
GPGPU-Sim PTX: 8700000 instructions simulated : ctaid=(46,0,0) tid=(97,0,0)
GPGPU-Sim PTX: 8800000 instructions simulated : ctaid=(25,0,0) tid=(245,0,0)
GPGPU-Sim PTX: 8900000 instructions simulated : ctaid=(24,0,0) tid=(117,0,0)
GPGPU-Sim PTX: 9000000 instructions simulated : ctaid=(50,0,0) tid=(53,0,0)
GPGPU-Sim uArch: cycles simulated: 26500  inst.: 8592503 (ipc=324.2) sim_rate=268515 (inst/sec) elapsed = 0:0:00:32 / Wed May  1 12:43:53 2019
GPGPU-Sim PTX: 9100000 instructions simulated : ctaid=(46,0,0) tid=(21,0,0)
GPGPU-Sim PTX: 9200000 instructions simulated : ctaid=(54,0,0) tid=(37,0,0)
GPGPU-Sim PTX: 9300000 instructions simulated : ctaid=(45,0,0) tid=(21,0,0)
GPGPU-Sim PTX: 9400000 instructions simulated : ctaid=(33,0,0) tid=(105,0,0)
GPGPU-Sim uArch: cycles simulated: 27500  inst.: 9008347 (ipc=327.6) sim_rate=272980 (inst/sec) elapsed = 0:0:00:33 / Wed May  1 12:43:54 2019
GPGPU-Sim PTX: 9500000 instructions simulated : ctaid=(31,0,0) tid=(135,0,0)
GPGPU-Sim PTX: 9600000 instructions simulated : ctaid=(71,0,0) tid=(243,0,0)
GPGPU-Sim uArch: cycles simulated: 28000  inst.: 9249031 (ipc=330.3) sim_rate=272030 (inst/sec) elapsed = 0:0:00:34 / Wed May  1 12:43:55 2019
GPGPU-Sim PTX: 9700000 instructions simulated : ctaid=(46,0,0) tid=(199,0,0)
GPGPU-Sim PTX: 9800000 instructions simulated : ctaid=(53,0,0) tid=(253,0,0)
GPGPU-Sim PTX: 9900000 instructions simulated : ctaid=(15,0,0) tid=(204,0,0)
GPGPU-Sim PTX: 10000000 instructions simulated : ctaid=(20,0,0) tid=(239,0,0)
GPGPU-Sim PTX: 10100000 instructions simulated : ctaid=(42,0,0) tid=(90,0,0)
GPGPU-Sim uArch: Shader 10 finished CTA #0 (28773,0), 5 CTAs running
GPGPU-Sim uArch: core: 10, cta: 0 initialized @(28774,0)
GPGPU-Sim PTX: 10200000 instructions simulated : ctaid=(16,0,0) tid=(55,0,0)
GPGPU-Sim uArch: cycles simulated: 29000  inst.: 9751879 (ipc=336.3) sim_rate=278625 (inst/sec) elapsed = 0:0:00:35 / Wed May  1 12:43:56 2019
GPGPU-Sim PTX: 10300000 instructions simulated : ctaid=(3,0,0) tid=(215,0,0)
GPGPU-Sim PTX: 10400000 instructions simulated : ctaid=(49,0,0) tid=(56,0,0)
GPGPU-Sim uArch: Shader 2 finished CTA #0 (29456,0), 5 CTAs running
GPGPU-Sim uArch: core:  2, cta: 0 initialized @(29457,0)
GPGPU-Sim uArch: Shader 6 finished CTA #0 (29494,0), 5 CTAs running
GPGPU-Sim uArch: core:  6, cta: 0 initialized @(29495,0)
GPGPU-Sim uArch: cycles simulated: 29500  inst.: 9998761 (ipc=338.9) sim_rate=277743 (inst/sec) elapsed = 0:0:00:36 / Wed May  1 12:43:57 2019
GPGPU-Sim PTX: 10500000 instructions simulated : ctaid=(52,0,0) tid=(215,0,0)
GPGPU-Sim PTX: 10600000 instructions simulated : ctaid=(59,0,0) tid=(201,0,0)
GPGPU-Sim uArch: Shader 7 finished CTA #0 (29784,0), 5 CTAs running
GPGPU-Sim uArch: core:  7, cta: 0 initialized @(29785,0)
GPGPU-Sim uArch: Shader 14 finished CTA #0 (29810,0), 5 CTAs running
GPGPU-Sim uArch: core: 14, cta: 0 initialized @(29811,0)
GPGPU-Sim uArch: Shader 5 finished CTA #0 (29816,0), 5 CTAs running
GPGPU-Sim uArch: core:  5, cta: 0 initialized @(29817,0)
GPGPU-Sim PTX: 10700000 instructions simulated : ctaid=(10,0,0) tid=(44,0,0)
GPGPU-Sim uArch: cycles simulated: 30000  inst.: 10276651 (ipc=342.6) sim_rate=277747 (inst/sec) elapsed = 0:0:00:37 / Wed May  1 12:43:58 2019
GPGPU-Sim PTX: 10800000 instructions simulated : ctaid=(44,0,0) tid=(32,0,0)
GPGPU-Sim uArch: Shader 11 finished CTA #0 (30186,0), 5 CTAs running
GPGPU-Sim uArch: core: 11, cta: 0 initialized @(30187,0)
GPGPU-Sim PTX: 10900000 instructions simulated : ctaid=(41,0,0) tid=(99,0,0)
GPGPU-Sim uArch: Shader 4 finished CTA #0 (30229,0), 5 CTAs running
GPGPU-Sim uArch: core:  4, cta: 0 initialized @(30230,0)
GPGPU-Sim uArch: Shader 9 finished CTA #0 (30306,0), 5 CTAs running
GPGPU-Sim uArch: core:  9, cta: 0 initialized @(30307,0)
GPGPU-Sim PTX: 11000000 instructions simulated : ctaid=(42,0,0) tid=(174,0,0)
GPGPU-Sim uArch: Shader 8 finished CTA #0 (30363,0), 5 CTAs running
GPGPU-Sim uArch: core:  8, cta: 0 initialized @(30364,0)
GPGPU-Sim PTX: 11100000 instructions simulated : ctaid=(49,0,0) tid=(65,0,0)
GPGPU-Sim PTX: 11200000 instructions simulated : ctaid=(24,0,0) tid=(37,0,0)
GPGPU-Sim PTX: 11300000 instructions simulated : ctaid=(62,0,0) tid=(175,0,0)
GPGPU-Sim uArch: Shader 1 finished CTA #0 (30889,0), 5 CTAs running
GPGPU-Sim uArch: core:  1, cta: 0 initialized @(30890,0)
GPGPU-Sim uArch: Shader 0 finished CTA #0 (30920,0), 5 CTAs running
GPGPU-Sim uArch: core:  0, cta: 0 initialized @(30921,0)
GPGPU-Sim PTX: 11400000 instructions simulated : ctaid=(23,0,0) tid=(180,0,0)
GPGPU-Sim uArch: cycles simulated: 31000  inst.: 10883646 (ipc=351.1) sim_rate=286411 (inst/sec) elapsed = 0:0:00:38 / Wed May  1 12:43:59 2019
GPGPU-Sim PTX: 11500000 instructions simulated : ctaid=(73,0,0) tid=(37,0,0)
GPGPU-Sim PTX: 11600000 instructions simulated : ctaid=(71,0,0) tid=(57,0,0)
GPGPU-Sim uArch: Shader 12 finished CTA #0 (31424,0), 5 CTAs running
GPGPU-Sim uArch: core: 12, cta: 0 initialized @(31425,0)
GPGPU-Sim PTX: 11700000 instructions simulated : ctaid=(29,0,0) tid=(129,0,0)
GPGPU-Sim uArch: Shader 3 finished CTA #0 (31463,0), 5 CTAs running
GPGPU-Sim uArch: core:  3, cta: 0 initialized @(31464,0)
GPGPU-Sim uArch: cycles simulated: 31500  inst.: 11181457 (ipc=355.0) sim_rate=286704 (inst/sec) elapsed = 0:0:00:39 / Wed May  1 12:44:00 2019
GPGPU-Sim uArch: Shader 5 finished CTA #1 (31517,0), 5 CTAs running
GPGPU-Sim uArch: core:  5, cta: 1 initialized @(31518,0)
GPGPU-Sim uArch: Shader 2 finished CTA #1 (31560,0), 5 CTAs running
GPGPU-Sim uArch: core:  2, cta: 1 initialized @(31561,0)
GPGPU-Sim PTX: 11800000 instructions simulated : ctaid=(38,0,0) tid=(22,0,0)
GPGPU-Sim PTX: 11900000 instructions simulated : ctaid=(46,0,0) tid=(253,0,0)
GPGPU-Sim PTX: 12000000 instructions simulated : ctaid=(44,0,0) tid=(186,0,0)
GPGPU-Sim uArch: cycles simulated: 32000  inst.: 11445082 (ipc=357.7) sim_rate=286127 (inst/sec) elapsed = 0:0:00:40 / Wed May  1 12:44:01 2019
GPGPU-Sim PTX: 12100000 instructions simulated : ctaid=(94,0,0) tid=(30,0,0)
GPGPU-Sim uArch: Shader 13 finished CTA #0 (32307,0), 5 CTAs running
GPGPU-Sim uArch: core: 13, cta: 0 initialized @(32308,0)
GPGPU-Sim uArch: Shader 4 finished CTA #1 (32349,0), 5 CTAs running
GPGPU-Sim uArch: core:  4, cta: 1 initialized @(32350,0)
GPGPU-Sim uArch: Shader 7 finished CTA #1 (32351,0), 5 CTAs running
GPGPU-Sim uArch: core:  7, cta: 1 initialized @(32352,0)
GPGPU-Sim PTX: 12200000 instructions simulated : ctaid=(23,0,0) tid=(209,0,0)
GPGPU-Sim uArch: cycles simulated: 32500  inst.: 11700962 (ipc=360.0) sim_rate=285389 (inst/sec) elapsed = 0:0:00:41 / Wed May  1 12:44:02 2019
GPGPU-Sim PTX: 12300000 instructions simulated : ctaid=(66,0,0) tid=(40,0,0)
GPGPU-Sim PTX: 12400000 instructions simulated : ctaid=(108,0,0) tid=(104,0,0)
GPGPU-Sim uArch: Shader 8 finished CTA #1 (32867,0), 5 CTAs running
GPGPU-Sim uArch: core:  8, cta: 1 initialized @(32868,0)
GPGPU-Sim uArch: Shader 14 finished CTA #1 (32869,0), 5 CTAs running
GPGPU-Sim uArch: core: 14, cta: 1 initialized @(32870,0)
GPGPU-Sim PTX: 12500000 instructions simulated : ctaid=(70,0,0) tid=(7,0,0)
GPGPU-Sim uArch: Shader 6 finished CTA #1 (32945,0), 5 CTAs running
GPGPU-Sim uArch: core:  6, cta: 1 initialized @(32946,0)
GPGPU-Sim uArch: Shader 3 finished CTA #1 (32971,0), 5 CTAs running
GPGPU-Sim uArch: core:  3, cta: 1 initialized @(32972,0)
GPGPU-Sim uArch: cycles simulated: 33000  inst.: 11960460 (ipc=362.4) sim_rate=284772 (inst/sec) elapsed = 0:0:00:42 / Wed May  1 12:44:03 2019
GPGPU-Sim PTX: 12600000 instructions simulated : ctaid=(27,0,0) tid=(165,0,0)
GPGPU-Sim uArch: Shader 10 finished CTA #1 (33151,0), 5 CTAs running
GPGPU-Sim uArch: core: 10, cta: 1 initialized @(33152,0)
GPGPU-Sim uArch: Shader 1 finished CTA #1 (33199,0), 5 CTAs running
GPGPU-Sim uArch: core:  1, cta: 1 initialized @(33200,0)
GPGPU-Sim uArch: Shader 11 finished CTA #1 (33283,0), 5 CTAs running
GPGPU-Sim uArch: core: 11, cta: 1 initialized @(33284,0)
GPGPU-Sim uArch: Shader 12 finished CTA #1 (33309,0), 5 CTAs running
GPGPU-Sim uArch: core: 12, cta: 1 initialized @(33310,0)
GPGPU-Sim PTX: 12700000 instructions simulated : ctaid=(80,0,0) tid=(251,0,0)
GPGPU-Sim uArch: cycles simulated: 33500  inst.: 12194192 (ipc=364.0) sim_rate=283585 (inst/sec) elapsed = 0:0:00:43 / Wed May  1 12:44:04 2019
GPGPU-Sim PTX: 12800000 instructions simulated : ctaid=(113,0,0) tid=(24,0,0)
GPGPU-Sim PTX: 12900000 instructions simulated : ctaid=(106,0,0) tid=(67,0,0)
GPGPU-Sim PTX: 13000000 instructions simulated : ctaid=(37,0,0) tid=(157,0,0)
GPGPU-Sim uArch: Shader 9 finished CTA #1 (33978,0), 5 CTAs running
GPGPU-Sim uArch: core:  9, cta: 1 initialized @(33979,0)
GPGPU-Sim uArch: cycles simulated: 34000  inst.: 12417463 (ipc=365.2) sim_rate=282215 (inst/sec) elapsed = 0:0:00:44 / Wed May  1 12:44:05 2019
GPGPU-Sim uArch: Shader 0 finished CTA #1 (34057,0), 5 CTAs running
GPGPU-Sim uArch: core:  0, cta: 1 initialized @(34058,0)
GPGPU-Sim PTX: 13100000 instructions simulated : ctaid=(70,0,0) tid=(100,0,0)
GPGPU-Sim PTX: 13200000 instructions simulated : ctaid=(98,0,0) tid=(165,0,0)
GPGPU-Sim uArch: cycles simulated: 34500  inst.: 12650514 (ipc=366.7) sim_rate=281122 (inst/sec) elapsed = 0:0:00:45 / Wed May  1 12:44:06 2019
GPGPU-Sim PTX: 13300000 instructions simulated : ctaid=(118,0,0) tid=(208,0,0)
GPGPU-Sim PTX: 13400000 instructions simulated : ctaid=(52,0,0) tid=(105,0,0)
GPGPU-Sim PTX: 13500000 instructions simulated : ctaid=(39,0,0) tid=(127,0,0)
GPGPU-Sim uArch: Shader 13 finished CTA #1 (35037,0), 5 CTAs running
GPGPU-Sim uArch: core: 13, cta: 1 initialized @(35038,0)
GPGPU-Sim PTX: 13600000 instructions simulated : ctaid=(74,0,0) tid=(62,0,0)
GPGPU-Sim PTX: 13700000 instructions simulated : ctaid=(34,0,0) tid=(5,0,0)
GPGPU-Sim uArch: cycles simulated: 35500  inst.: 13148338 (ipc=370.4) sim_rate=285833 (inst/sec) elapsed = 0:0:00:46 / Wed May  1 12:44:07 2019
GPGPU-Sim PTX: 13800000 instructions simulated : ctaid=(65,0,0) tid=(143,0,0)
GPGPU-Sim PTX: 13900000 instructions simulated : ctaid=(63,0,0) tid=(102,0,0)
GPGPU-Sim PTX: 14000000 instructions simulated : ctaid=(43,0,0) tid=(111,0,0)
GPGPU-Sim uArch: cycles simulated: 36000  inst.: 13353119 (ipc=370.9) sim_rate=284108 (inst/sec) elapsed = 0:0:00:47 / Wed May  1 12:44:08 2019
GPGPU-Sim PTX: 14100000 instructions simulated : ctaid=(106,0,0) tid=(58,0,0)
GPGPU-Sim PTX: 14200000 instructions simulated : ctaid=(37,0,0) tid=(2,0,0)
GPGPU-Sim uArch: cycles simulated: 36500  inst.: 13565437 (ipc=371.7) sim_rate=282613 (inst/sec) elapsed = 0:0:00:48 / Wed May  1 12:44:09 2019
GPGPU-Sim PTX: 14300000 instructions simulated : ctaid=(71,0,0) tid=(130,0,0)
GPGPU-Sim PTX: 14400000 instructions simulated : ctaid=(84,0,0) tid=(77,0,0)
GPGPU-Sim PTX: 14500000 instructions simulated : ctaid=(112,0,0) tid=(57,0,0)
GPGPU-Sim uArch: Shader 6 finished CTA #2 (37192,0), 5 CTAs running
GPGPU-Sim uArch: core:  6, cta: 2 initialized @(37193,0)
GPGPU-Sim uArch: Shader 10 finished CTA #2 (37227,0), 5 CTAs running
GPGPU-Sim uArch: core: 10, cta: 2 initialized @(37228,0)
GPGPU-Sim uArch: Shader 14 finished CTA #2 (37235,0), 5 CTAs running
GPGPU-Sim uArch: core: 14, cta: 2 initialized @(37236,0)
GPGPU-Sim PTX: 14600000 instructions simulated : ctaid=(103,0,0) tid=(0,0,0)
GPGPU-Sim uArch: Shader 11 finished CTA #2 (37396,0), 5 CTAs running
GPGPU-Sim uArch: core: 11, cta: 2 initialized @(37397,0)
GPGPU-Sim PTX: 14700000 instructions simulated : ctaid=(77,0,0) tid=(189,0,0)
GPGPU-Sim uArch: cycles simulated: 37500  inst.: 14041543 (ipc=374.4) sim_rate=286562 (inst/sec) elapsed = 0:0:00:49 / Wed May  1 12:44:10 2019
GPGPU-Sim PTX: 14800000 instructions simulated : ctaid=(80,0,0) tid=(27,0,0)
GPGPU-Sim uArch: Shader 2 finished CTA #2 (37679,0), 5 CTAs running
GPGPU-Sim uArch: core:  2, cta: 2 initialized @(37680,0)
GPGPU-Sim uArch: Shader 5 finished CTA #2 (37696,0), 5 CTAs running
GPGPU-Sim uArch: core:  5, cta: 2 initialized @(37697,0)
GPGPU-Sim PTX: 14900000 instructions simulated : ctaid=(48,0,0) tid=(152,0,0)
GPGPU-Sim uArch: cycles simulated: 38000  inst.: 14257816 (ipc=375.2) sim_rate=285156 (inst/sec) elapsed = 0:0:00:50 / Wed May  1 12:44:11 2019
GPGPU-Sim uArch: Shader 8 finished CTA #2 (38038,0), 5 CTAs running
GPGPU-Sim uArch: core:  8, cta: 2 initialized @(38039,0)
GPGPU-Sim PTX: 15000000 instructions simulated : ctaid=(52,0,0) tid=(75,0,0)
GPGPU-Sim PTX: 15100000 instructions simulated : ctaid=(88,0,0) tid=(3,0,0)
GPGPU-Sim uArch: Shader 4 finished CTA #2 (38384,0), 5 CTAs running
GPGPU-Sim uArch: core:  4, cta: 2 initialized @(38385,0)
GPGPU-Sim uArch: cycles simulated: 38500  inst.: 14448666 (ipc=375.3) sim_rate=283307 (inst/sec) elapsed = 0:0:00:51 / Wed May  1 12:44:12 2019
GPGPU-Sim PTX: 15200000 instructions simulated : ctaid=(113,0,0) tid=(115,0,0)
GPGPU-Sim uArch: Shader 3 finished CTA #2 (38748,0), 5 CTAs running
GPGPU-Sim PTX: 15300000 instructions simulated : ctaid=(67,0,0) tid=(215,0,0)
GPGPU-Sim uArch: Shader 1 finished CTA #2 (38803,0), 5 CTAs running
GPGPU-Sim PTX: 15400000 instructions simulated : ctaid=(112,0,0) tid=(143,0,0)
GPGPU-Sim uArch: cycles simulated: 39000  inst.: 14686419 (ipc=376.6) sim_rate=282431 (inst/sec) elapsed = 0:0:00:52 / Wed May  1 12:44:13 2019
GPGPU-Sim uArch: Shader 0 finished CTA #2 (39095,0), 5 CTAs running
GPGPU-Sim PTX: 15500000 instructions simulated : ctaid=(74,0,0) tid=(128,0,0)
GPGPU-Sim PTX: 15600000 instructions simulated : ctaid=(62,0,0) tid=(242,0,0)
GPGPU-Sim uArch: Shader 7 finished CTA #2 (39480,0), 5 CTAs running
GPGPU-Sim uArch: cycles simulated: 39500  inst.: 14919786 (ipc=377.7) sim_rate=281505 (inst/sec) elapsed = 0:0:00:53 / Wed May  1 12:44:14 2019
GPGPU-Sim PTX: 15700000 instructions simulated : ctaid=(50,0,0) tid=(136,0,0)
GPGPU-Sim PTX: 15800000 instructions simulated : ctaid=(50,0,0) tid=(178,0,0)
GPGPU-Sim PTX: 15900000 instructions simulated : ctaid=(55,0,0) tid=(57,0,0)
GPGPU-Sim uArch: Shader 12 finished CTA #2 (40107,0), 5 CTAs running
GPGPU-Sim PTX: 16000000 instructions simulated : ctaid=(55,0,0) tid=(179,0,0)
GPGPU-Sim PTX: 16100000 instructions simulated : ctaid=(85,0,0) tid=(20,0,0)
GPGPU-Sim uArch: cycles simulated: 40500  inst.: 15360036 (ipc=379.3) sim_rate=284445 (inst/sec) elapsed = 0:0:00:54 / Wed May  1 12:44:15 2019
GPGPU-Sim PTX: 16200000 instructions simulated : ctaid=(49,0,0) tid=(243,0,0)
GPGPU-Sim uArch: Shader 13 finished CTA #2 (40860,0), 5 CTAs running
GPGPU-Sim PTX: 16300000 instructions simulated : ctaid=(75,0,0) tid=(136,0,0)
GPGPU-Sim uArch: cycles simulated: 41000  inst.: 15583952 (ipc=380.1) sim_rate=283344 (inst/sec) elapsed = 0:0:00:55 / Wed May  1 12:44:16 2019
GPGPU-Sim PTX: 16400000 instructions simulated : ctaid=(60,0,0) tid=(65,0,0)
GPGPU-Sim uArch: Shader 9 finished CTA #2 (41247,0), 5 CTAs running
GPGPU-Sim uArch: Shader 10 finished CTA #3 (41279,0), 5 CTAs running
GPGPU-Sim PTX: 16500000 instructions simulated : ctaid=(82,0,0) tid=(5,0,0)
GPGPU-Sim uArch: cycles simulated: 41500  inst.: 15799089 (ipc=380.7) sim_rate=282126 (inst/sec) elapsed = 0:0:00:56 / Wed May  1 12:44:17 2019
GPGPU-Sim PTX: 16600000 instructions simulated : ctaid=(57,0,0) tid=(128,0,0)
GPGPU-Sim uArch: Shader 14 finished CTA #3 (41623,0), 5 CTAs running
GPGPU-Sim PTX: 16700000 instructions simulated : ctaid=(120,0,0) tid=(22,0,0)
GPGPU-Sim uArch: Shader 2 finished CTA #3 (41841,0), 5 CTAs running
GPGPU-Sim PTX: 16800000 instructions simulated : ctaid=(112,0,0) tid=(141,0,0)
GPGPU-Sim PTX: 16900000 instructions simulated : ctaid=(102,0,0) tid=(72,0,0)
GPGPU-Sim uArch: cycles simulated: 42500  inst.: 16193823 (ipc=381.0) sim_rate=284102 (inst/sec) elapsed = 0:0:00:57 / Wed May  1 12:44:18 2019
GPGPU-Sim PTX: 17000000 instructions simulated : ctaid=(52,0,0) tid=(34,0,0)
GPGPU-Sim PTX: 17100000 instructions simulated : ctaid=(91,0,0) tid=(99,0,0)
GPGPU-Sim uArch: cycles simulated: 43000  inst.: 16360265 (ipc=380.5) sim_rate=282073 (inst/sec) elapsed = 0:0:00:58 / Wed May  1 12:44:19 2019
GPGPU-Sim uArch: Shader 5 finished CTA #3 (43004,0), 5 CTAs running
GPGPU-Sim uArch: Shader 11 finished CTA #3 (43023,0), 5 CTAs running
GPGPU-Sim uArch: Shader 6 finished CTA #3 (43031,0), 5 CTAs running
GPGPU-Sim uArch: Shader 1 finished CTA #3 (43120,0), 4 CTAs running
GPGPU-Sim PTX: 17200000 instructions simulated : ctaid=(108,0,0) tid=(93,0,0)
GPGPU-Sim uArch: Shader 4 finished CTA #3 (43199,0), 5 CTAs running
GPGPU-Sim PTX: 17300000 instructions simulated : ctaid=(88,0,0) tid=(179,0,0)
GPGPU-Sim uArch: Shader 8 finished CTA #3 (43629,0), 5 CTAs running
GPGPU-Sim PTX: 17400000 instructions simulated : ctaid=(109,0,0) tid=(26,0,0)
GPGPU-Sim PTX: 17500000 instructions simulated : ctaid=(47,0,0) tid=(189,0,0)
GPGPU-Sim uArch: cycles simulated: 44000  inst.: 16701501 (ipc=379.6) sim_rate=283076 (inst/sec) elapsed = 0:0:00:59 / Wed May  1 12:44:20 2019
GPGPU-Sim PTX: 17600000 instructions simulated : ctaid=(57,0,0) tid=(142,0,0)
GPGPU-Sim uArch: Shader 0 finished CTA #3 (44316,0), 4 CTAs running
GPGPU-Sim uArch: Shader 7 finished CTA #3 (44489,0), 4 CTAs running
GPGPU-Sim PTX: 17700000 instructions simulated : ctaid=(68,0,0) tid=(237,0,0)
GPGPU-Sim PTX: 17800000 instructions simulated : ctaid=(109,0,0) tid=(221,0,0)
GPGPU-Sim uArch: cycles simulated: 45000  inst.: 17027225 (ipc=378.4) sim_rate=283787 (inst/sec) elapsed = 0:0:01:00 / Wed May  1 12:44:21 2019
GPGPU-Sim PTX: 17900000 instructions simulated : ctaid=(78,0,0) tid=(243,0,0)
GPGPU-Sim PTX: 18000000 instructions simulated : ctaid=(114,0,0) tid=(195,0,0)
GPGPU-Sim uArch: cycles simulated: 45500  inst.: 17190250 (ipc=377.8) sim_rate=281807 (inst/sec) elapsed = 0:0:01:01 / Wed May  1 12:44:22 2019
GPGPU-Sim PTX: 18100000 instructions simulated : ctaid=(62,0,0) tid=(39,0,0)
GPGPU-Sim uArch: Shader 12 finished CTA #3 (45884,0), 4 CTAs running
GPGPU-Sim uArch: Shader 3 finished CTA #3 (45887,0), 4 CTAs running
GPGPU-Sim uArch: Shader 9 finished CTA #3 (45920,0), 4 CTAs running
GPGPU-Sim PTX: 18200000 instructions simulated : ctaid=(116,0,0) tid=(161,0,0)
GPGPU-Sim PTX: 18300000 instructions simulated : ctaid=(71,0,0) tid=(114,0,0)
GPGPU-Sim PTX: 18400000 instructions simulated : ctaid=(70,0,0) tid=(71,0,0)
GPGPU-Sim uArch: cycles simulated: 46500  inst.: 17565846 (ipc=377.8) sim_rate=283320 (inst/sec) elapsed = 0:0:01:02 / Wed May  1 12:44:23 2019
GPGPU-Sim PTX: 18500000 instructions simulated : ctaid=(115,0,0) tid=(129,0,0)
GPGPU-Sim uArch: Shader 13 finished CTA #3 (46725,0), 4 CTAs running
GPGPU-Sim PTX: 18600000 instructions simulated : ctaid=(121,0,0) tid=(192,0,0)
GPGPU-Sim PTX: 18700000 instructions simulated : ctaid=(110,0,0) tid=(189,0,0)
GPGPU-Sim uArch: Shader 14 finished CTA #4 (47318,0), 4 CTAs running
GPGPU-Sim PTX: 18800000 instructions simulated : ctaid=(84,0,0) tid=(237,0,0)
GPGPU-Sim uArch: Shader 3 finished CTA #4 (47410,0), 3 CTAs running
GPGPU-Sim uArch: cycles simulated: 47500  inst.: 17986907 (ipc=378.7) sim_rate=285506 (inst/sec) elapsed = 0:0:01:03 / Wed May  1 12:44:24 2019
GPGPU-Sim PTX: 18900000 instructions simulated : ctaid=(67,0,0) tid=(133,0,0)
GPGPU-Sim uArch: Shader 10 finished CTA #4 (47619,0), 4 CTAs running
GPGPU-Sim PTX: 19000000 instructions simulated : ctaid=(124,0,0) tid=(187,0,0)
GPGPU-Sim PTX: 19100000 instructions simulated : ctaid=(81,0,0) tid=(7,0,0)
GPGPU-Sim uArch: cycles simulated: 48000  inst.: 18243919 (ipc=380.1) sim_rate=285061 (inst/sec) elapsed = 0:0:01:04 / Wed May  1 12:44:25 2019
GPGPU-Sim PTX: 19200000 instructions simulated : ctaid=(119,0,0) tid=(12,0,0)
GPGPU-Sim uArch: Shader 7 finished CTA #4 (48251,0), 3 CTAs running
GPGPU-Sim uArch: Shader 4 finished CTA #4 (48275,0), 4 CTAs running
GPGPU-Sim PTX: 19300000 instructions simulated : ctaid=(81,0,0) tid=(121,0,0)
GPGPU-Sim PTX: 19400000 instructions simulated : ctaid=(68,0,0) tid=(149,0,0)
GPGPU-Sim uArch: cycles simulated: 48500  inst.: 18518614 (ipc=381.8) sim_rate=284901 (inst/sec) elapsed = 0:0:01:05 / Wed May  1 12:44:26 2019
GPGPU-Sim uArch: Shader 6 finished CTA #4 (48528,0), 4 CTAs running
GPGPU-Sim PTX: 19500000 instructions simulated : ctaid=(80,0,0) tid=(119,0,0)
GPGPU-Sim PTX: 19600000 instructions simulated : ctaid=(123,0,0) tid=(156,0,0)
GPGPU-Sim uArch: Shader 11 finished CTA #4 (48866,0), 4 CTAs running
GPGPU-Sim uArch: cycles simulated: 49000  inst.: 18785165 (ipc=383.4) sim_rate=284623 (inst/sec) elapsed = 0:0:01:06 / Wed May  1 12:44:27 2019
GPGPU-Sim PTX: 19700000 instructions simulated : ctaid=(85,0,0) tid=(221,0,0)
GPGPU-Sim uArch: Shader 1 finished CTA #4 (49198,0), 3 CTAs running
GPGPU-Sim PTX: 19800000 instructions simulated : ctaid=(104,0,0) tid=(105,0,0)
GPGPU-Sim uArch: Shader 5 finished CTA #4 (49432,0), 4 CTAs running
GPGPU-Sim PTX: 19900000 instructions simulated : ctaid=(94,0,0) tid=(255,0,0)
GPGPU-Sim uArch: Shader 8 finished CTA #4 (49526,0), 4 CTAs running
GPGPU-Sim uArch: Shader 0 finished CTA #4 (49565,0), 3 CTAs running
GPGPU-Sim PTX: 20000000 instructions simulated : ctaid=(94,0,0) tid=(27,0,0)
GPGPU-Sim uArch: Shader 9 finished CTA #4 (49710,0), 3 CTAs running
GPGPU-Sim PTX: 20100000 instructions simulated : ctaid=(106,0,0) tid=(103,0,0)
GPGPU-Sim uArch: Shader 2 finished CTA #4 (49903,0), 4 CTAs running
GPGPU-Sim uArch: cycles simulated: 50000  inst.: 19226016 (ipc=384.5) sim_rate=286955 (inst/sec) elapsed = 0:0:01:07 / Wed May  1 12:44:28 2019
GPGPU-Sim PTX: 20200000 instructions simulated : ctaid=(102,0,0) tid=(163,0,0)
GPGPU-Sim uArch: Shader 12 finished CTA #4 (50181,0), 3 CTAs running
GPGPU-Sim PTX: 20300000 instructions simulated : ctaid=(75,0,0) tid=(175,0,0)
GPGPU-Sim uArch: cycles simulated: 50500  inst.: 19441962 (ipc=385.0) sim_rate=285911 (inst/sec) elapsed = 0:0:01:08 / Wed May  1 12:44:29 2019
GPGPU-Sim PTX: 20400000 instructions simulated : ctaid=(72,0,0) tid=(191,0,0)
GPGPU-Sim PTX: 20500000 instructions simulated : ctaid=(112,0,0) tid=(245,0,0)
GPGPU-Sim PTX: 20600000 instructions simulated : ctaid=(126,0,0) tid=(53,0,0)
GPGPU-Sim uArch: Shader 10 finished CTA #5 (50984,0), 3 CTAs running
GPGPU-Sim PTX: 20700000 instructions simulated : ctaid=(81,0,0) tid=(99,0,0)
GPGPU-Sim PTX: 20800000 instructions simulated : ctaid=(89,0,0) tid=(234,0,0)
GPGPU-Sim uArch: Shader 13 finished CTA #4 (51398,0), 3 CTAs running
GPGPU-Sim uArch: cycles simulated: 51500  inst.: 19910134 (ipc=386.6) sim_rate=288552 (inst/sec) elapsed = 0:0:01:09 / Wed May  1 12:44:30 2019
GPGPU-Sim PTX: 20900000 instructions simulated : ctaid=(96,0,0) tid=(227,0,0)
GPGPU-Sim PTX: 21000000 instructions simulated : ctaid=(126,0,0) tid=(167,0,0)
GPGPU-Sim uArch: Shader 14 finished CTA #5 (51842,0), 3 CTAs running
GPGPU-Sim PTX: 21100000 instructions simulated : ctaid=(116,0,0) tid=(113,0,0)
GPGPU-Sim uArch: cycles simulated: 52000  inst.: 20195251 (ipc=388.4) sim_rate=288503 (inst/sec) elapsed = 0:0:01:10 / Wed May  1 12:44:31 2019
GPGPU-Sim uArch: Shader 11 finished CTA #5 (52005,0), 3 CTAs running
GPGPU-Sim PTX: 21200000 instructions simulated : ctaid=(117,0,0) tid=(31,0,0)
GPGPU-Sim PTX: 21300000 instructions simulated : ctaid=(114,0,0) tid=(205,0,0)
GPGPU-Sim uArch: Shader 3 finished CTA #5 (52357,0), 2 CTAs running
GPGPU-Sim PTX: 21400000 instructions simulated : ctaid=(107,0,0) tid=(86,0,0)
GPGPU-Sim uArch: Shader 6 finished CTA #5 (52462,0), 3 CTAs running
GPGPU-Sim uArch: cycles simulated: 52500  inst.: 20472369 (ipc=389.9) sim_rate=288343 (inst/sec) elapsed = 0:0:01:11 / Wed May  1 12:44:32 2019
GPGPU-Sim PTX: 21500000 instructions simulated : ctaid=(79,0,0) tid=(113,0,0)
GPGPU-Sim uArch: Shader 7 finished CTA #5 (52601,0), 2 CTAs running
GPGPU-Sim PTX: 21600000 instructions simulated : ctaid=(97,0,0) tid=(130,0,0)
GPGPU-Sim PTX: 21700000 instructions simulated : ctaid=(99,0,0) tid=(176,0,0)
GPGPU-Sim PTX: 21800000 instructions simulated : ctaid=(118,0,0) tid=(13,0,0)
GPGPU-Sim uArch: Shader 0 finished CTA #5 (53212,0), 2 CTAs running
GPGPU-Sim uArch: Shader 8 finished CTA #5 (53216,0), 3 CTAs running
GPGPU-Sim PTX: 21900000 instructions simulated : ctaid=(96,0,0) tid=(165,0,0)
GPGPU-Sim uArch: Shader 1 finished CTA #5 (53297,0), 2 CTAs running
GPGPU-Sim uArch: Shader 4 finished CTA #5 (53404,0), 3 CTAs running
GPGPU-Sim PTX: 22000000 instructions simulated : ctaid=(122,0,0) tid=(9,0,0)
GPGPU-Sim uArch: cycles simulated: 53500  inst.: 20990332 (ipc=392.3) sim_rate=291532 (inst/sec) elapsed = 0:0:01:12 / Wed May  1 12:44:33 2019
GPGPU-Sim PTX: 22100000 instructions simulated : ctaid=(118,0,0) tid=(44,0,0)
GPGPU-Sim uArch: Shader 2 finished CTA #5 (53925,0), 3 CTAs running
GPGPU-Sim uArch: Shader 12 finished CTA #5 (53929,0), 2 CTAs running
GPGPU-Sim PTX: 22200000 instructions simulated : ctaid=(105,0,0) tid=(33,0,0)
GPGPU-Sim uArch: Shader 5 finished CTA #5 (53967,0), 3 CTAs running
GPGPU-Sim PTX: 22300000 instructions simulated : ctaid=(97,0,0) tid=(227,0,0)
GPGPU-Sim PTX: 22400000 instructions simulated : ctaid=(118,0,0) tid=(202,0,0)
GPGPU-Sim uArch: cycles simulated: 54500  inst.: 21395684 (ipc=392.6) sim_rate=293091 (inst/sec) elapsed = 0:0:01:13 / Wed May  1 12:44:34 2019
GPGPU-Sim uArch: Shader 9 finished CTA #5 (54561,0), 2 CTAs running
GPGPU-Sim PTX: 22500000 instructions simulated : ctaid=(106,0,0) tid=(123,0,0)
GPGPU-Sim PTX: 22600000 instructions simulated : ctaid=(122,0,0) tid=(59,0,0)
GPGPU-Sim PTX: 22700000 instructions simulated : ctaid=(114,0,0) tid=(171,0,0)
GPGPU-Sim PTX: 22800000 instructions simulated : ctaid=(124,0,0) tid=(49,0,0)
GPGPU-Sim uArch: cycles simulated: 55500  inst.: 21765078 (ipc=392.2) sim_rate=294122 (inst/sec) elapsed = 0:0:01:14 / Wed May  1 12:44:35 2019
GPGPU-Sim PTX: 22900000 instructions simulated : ctaid=(126,0,0) tid=(217,0,0)
GPGPU-Sim PTX: 23000000 instructions simulated : ctaid=(92,0,0) tid=(75,0,0)
GPGPU-Sim uArch: Shader 13 finished CTA #5 (55912,0), 2 CTAs running
GPGPU-Sim PTX: 23100000 instructions simulated : ctaid=(108,0,0) tid=(184,0,0)
GPGPU-Sim PTX: 23200000 instructions simulated : ctaid=(109,0,0) tid=(45,0,0)
GPGPU-Sim uArch: cycles simulated: 56500  inst.: 22198848 (ipc=392.9) sim_rate=295984 (inst/sec) elapsed = 0:0:01:15 / Wed May  1 12:44:36 2019
GPGPU-Sim PTX: 23300000 instructions simulated : ctaid=(109,0,0) tid=(85,0,0)
GPGPU-Sim PTX: 23400000 instructions simulated : ctaid=(92,0,0) tid=(71,0,0)
GPGPU-Sim PTX: 23500000 instructions simulated : ctaid=(97,0,0) tid=(233,0,0)
GPGPU-Sim PTX: 23600000 instructions simulated : ctaid=(124,0,0) tid=(83,0,0)
GPGPU-Sim PTX: 23700000 instructions simulated : ctaid=(110,0,0) tid=(180,0,0)
GPGPU-Sim uArch: Shader 10 finished CTA #0 (57385,0), 2 CTAs running
GPGPU-Sim uArch: cycles simulated: 57500  inst.: 22676623 (ipc=394.4) sim_rate=298376 (inst/sec) elapsed = 0:0:01:16 / Wed May  1 12:44:37 2019
GPGPU-Sim PTX: 23800000 instructions simulated : ctaid=(116,0,0) tid=(237,0,0)
GPGPU-Sim uArch: Shader 6 finished CTA #0 (57593,0), 2 CTAs running
GPGPU-Sim uArch: Shader 0 finished CTA #0 (57691,0), 1 CTAs running
GPGPU-Sim PTX: 23900000 instructions simulated : ctaid=(117,0,0) tid=(245,0,0)
GPGPU-Sim PTX: 24000000 instructions simulated : ctaid=(106,0,0) tid=(83,0,0)
GPGPU-Sim uArch: Shader 3 finished CTA #0 (58135,0), 1 CTAs running
GPGPU-Sim uArch: Shader 7 finished CTA #0 (58199,0), 1 CTAs running
GPGPU-Sim uArch: Shader 5 finished CTA #0 (58231,0), 2 CTAs running
GPGPU-Sim uArch: Shader 14 finished CTA #0 (58309,0), 2 CTAs running
GPGPU-Sim uArch: Shader 12 finished CTA #0 (58339,0), 1 CTAs running
GPGPU-Sim PTX: 24100000 instructions simulated : ctaid=(124,0,0) tid=(191,0,0)
GPGPU-Sim uArch: Shader 11 finished CTA #0 (58419,0), 2 CTAs running
GPGPU-Sim uArch: cycles simulated: 58500  inst.: 23016508 (ipc=393.4) sim_rate=298915 (inst/sec) elapsed = 0:0:01:17 / Wed May  1 12:44:38 2019
GPGPU-Sim uArch: Shader 4 finished CTA #0 (58522,0), 2 CTAs running
GPGPU-Sim PTX: 24200000 instructions simulated : ctaid=(126,0,0) tid=(119,0,0)
GPGPU-Sim PTX: 24300000 instructions simulated : ctaid=(113,0,0) tid=(223,0,0)
GPGPU-Sim uArch: Shader 1 finished CTA #0 (59074,0), 1 CTAs running
GPGPU-Sim PTX: 24400000 instructions simulated : ctaid=(113,0,0) tid=(99,0,0)
GPGPU-Sim uArch: Shader 9 finished CTA #0 (59385,0), 1 CTAs running
GPGPU-Sim uArch: cycles simulated: 59500  inst.: 23345866 (ipc=392.4) sim_rate=299305 (inst/sec) elapsed = 0:0:01:18 / Wed May  1 12:44:39 2019
GPGPU-Sim PTX: 24500000 instructions simulated : ctaid=(111,0,0) tid=(97,0,0)
GPGPU-Sim PTX: 24600000 instructions simulated : ctaid=(105,0,0) tid=(201,0,0)
GPGPU-Sim uArch: Shader 8 finished CTA #0 (59942,0), 2 CTAs running
GPGPU-Sim PTX: 24700000 instructions simulated : ctaid=(106,0,0) tid=(13,0,0)
GPGPU-Sim uArch: Shader 10 finished CTA #1 (60223,0), 1 CTAs running
GPGPU-Sim uArch: Shader 2 finished CTA #0 (60420,0), 2 CTAs running
GPGPU-Sim PTX: 24800000 instructions simulated : ctaid=(106,0,0) tid=(143,0,0)
GPGPU-Sim uArch: Shader 3 finished CTA #1 (60668,0), 0 CTAs running
GPGPU-Sim uArch: Shader 3 empty (release kernel 1 '_Z13scalarProdGPUPfS_S_ii').
GPGPU-Sim uArch: Shader 14 finished CTA #1 (60692,0), 1 CTAs running
GPGPU-Sim PTX: 24900000 instructions simulated : ctaid=(120,0,0) tid=(65,0,0)
GPGPU-Sim PTX: 25000000 instructions simulated : ctaid=(117,0,0) tid=(97,0,0)
GPGPU-Sim uArch: cycles simulated: 61000  inst.: 23849912 (ipc=391.0) sim_rate=301897 (inst/sec) elapsed = 0:0:01:19 / Wed May  1 12:44:40 2019
GPGPU-Sim uArch: Shader 13 finished CTA #0 (61028,0), 1 CTAs running
GPGPU-Sim uArch: Shader 7 finished CTA #1 (61191,0), 0 CTAs running
GPGPU-Sim uArch: Shader 7 empty (release kernel 1 '_Z13scalarProdGPUPfS_S_ii').
GPGPU-Sim PTX: 25100000 instructions simulated : ctaid=(105,0,0) tid=(225,0,0)
GPGPU-Sim uArch: Shader 6 finished CTA #1 (61356,0), 1 CTAs running
GPGPU-Sim uArch: Shader 1 finished CTA #1 (61566,0), 0 CTAs running
GPGPU-Sim uArch: Shader 1 empty (release kernel 1 '_Z13scalarProdGPUPfS_S_ii').
GPGPU-Sim uArch: Shader 0 finished CTA #1 (61630,0), 0 CTAs running
GPGPU-Sim uArch: Shader 0 empty (release kernel 1 '_Z13scalarProdGPUPfS_S_ii').
GPGPU-Sim uArch: Shader 12 finished CTA #1 (61677,0), 0 CTAs running
GPGPU-Sim uArch: Shader 12 empty (release kernel 1 '_Z13scalarProdGPUPfS_S_ii').
GPGPU-Sim PTX: 25200000 instructions simulated : ctaid=(127,0,0) tid=(189,0,0)
GPGPU-Sim PTX: 25300000 instructions simulated : ctaid=(119,0,0) tid=(141,0,0)
GPGPU-Sim uArch: Shader 9 finished CTA #1 (62124,0), 0 CTAs running
GPGPU-Sim uArch: Shader 9 empty (release kernel 1 '_Z13scalarProdGPUPfS_S_ii').
GPGPU-Sim uArch: Shader 11 finished CTA #1 (62151,0), 1 CTAs running
GPGPU-Sim uArch: Shader 4 finished CTA #1 (62197,0), 1 CTAs running
GPGPU-Sim uArch: Shader 5 finished CTA #1 (62403,0), 1 CTAs running
GPGPU-Sim uArch: Shader 8 finished CTA #1 (62494,0), 1 CTAs running
GPGPU-Sim uArch: cycles simulated: 62500  inst.: 24203269 (ipc=387.3) sim_rate=302540 (inst/sec) elapsed = 0:0:01:20 / Wed May  1 12:44:41 2019
GPGPU-Sim uArch: Shader 10 finished CTA #2 (62580,0), 0 CTAs running
GPGPU-Sim uArch: Shader 10 empty (release kernel 1 '_Z13scalarProdGPUPfS_S_ii').
GPGPU-Sim PTX: 25400000 instructions simulated : ctaid=(123,0,0) tid=(26,0,0)
GPGPU-Sim uArch: Shader 2 finished CTA #1 (62974,0), 1 CTAs running
GPGPU-Sim uArch: Shader 14 finished CTA #2 (63134,0), 0 CTAs running
GPGPU-Sim uArch: Shader 14 empty (release kernel 1 '_Z13scalarProdGPUPfS_S_ii').
GPGPU-Sim PTX: 25500000 instructions simulated : ctaid=(126,0,0) tid=(252,0,0)
GPGPU-Sim uArch: Shader 13 finished CTA #1 (63571,0), 0 CTAs running
GPGPU-Sim uArch: Shader 13 empty (release kernel 1 '_Z13scalarProdGPUPfS_S_ii').
GPGPU-Sim uArch: Shader 6 finished CTA #2 (63589,0), 0 CTAs running
GPGPU-Sim uArch: Shader 6 empty (release kernel 1 '_Z13scalarProdGPUPfS_S_ii').
GPGPU-Sim uArch: Shader 11 finished CTA #2 (64108,0), 0 CTAs running
GPGPU-Sim uArch: Shader 11 empty (release kernel 1 '_Z13scalarProdGPUPfS_S_ii').
GPGPU-Sim PTX: 25600000 instructions simulated : ctaid=(126,0,0) tid=(161,0,0)
GPGPU-Sim uArch: Shader 5 finished CTA #2 (64323,0), 0 CTAs running
GPGPU-Sim uArch: Shader 5 empty (release kernel 1 '_Z13scalarProdGPUPfS_S_ii').
GPGPU-Sim uArch: Shader 8 finished CTA #2 (64780,0), 0 CTAs running
GPGPU-Sim uArch: Shader 8 empty (release kernel 1 '_Z13scalarProdGPUPfS_S_ii').
GPGPU-Sim uArch: Shader 2 finished CTA #2 (64858,0), 0 CTAs running
GPGPU-Sim uArch: Shader 2 empty (release kernel 1 '_Z13scalarProdGPUPfS_S_ii').
GPGPU-Sim uArch: Shader 4 finished CTA #2 (64924,0), 0 CTAs running
GPGPU-Sim uArch: Shader 4 empty (release kernel 1 '_Z13scalarProdGPUPfS_S_ii').
GPGPU-Sim uArch: GPU detected kernel '_Z13scalarProdGPUPfS_S_ii' finished on shader 4.
kernel_name = _Z13scalarProdGPUPfS_S_ii 
kernel_launch_uid = 1 
gpu_sim_cycle = 64925
gpu_sim_insn = 24441600
gpu_ipc =     376.4590
gpu_tot_sim_cycle = 64925
gpu_tot_sim_insn = 24441600
gpu_tot_ipc =     376.4590
gpu_tot_issued_cta = 0
gpu_stall_dramfull = 33820
gpu_stall_icnt2sh    = 343747
gpu_total_sim_rate=305520

========= Core cache stats =========
L1I_cache:
	L1I_total_cache_accesses = 465642
	L1I_total_cache_misses = 2026
	L1I_total_cache_miss_rate = 0.0044
	L1I_total_cache_pending_hits = 0
	L1I_total_cache_reservation_fails = 6262
L1D_cache:
	L1D_cache_core[0]: Access = 4112, Miss = 4112, Miss_rate = 1.000, Pending_hits = 0, Reservation_fails = 35103
	L1D_cache_core[1]: Access = 4112, Miss = 4112, Miss_rate = 1.000, Pending_hits = 0, Reservation_fails = 34808
	L1D_cache_core[2]: Access = 4626, Miss = 4626, Miss_rate = 1.000, Pending_hits = 0, Reservation_fails = 38550
	L1D_cache_core[3]: Access = 4112, Miss = 4112, Miss_rate = 1.000, Pending_hits = 0, Reservation_fails = 33027
	L1D_cache_core[4]: Access = 4626, Miss = 4626, Miss_rate = 1.000, Pending_hits = 0, Reservation_fails = 37031
	L1D_cache_core[5]: Access = 4626, Miss = 4626, Miss_rate = 1.000, Pending_hits = 0, Reservation_fails = 35976
	L1D_cache_core[6]: Access = 4626, Miss = 4626, Miss_rate = 1.000, Pending_hits = 0, Reservation_fails = 36404
	L1D_cache_core[7]: Access = 4112, Miss = 4112, Miss_rate = 1.000, Pending_hits = 0, Reservation_fails = 35024
	L1D_cache_core[8]: Access = 4626, Miss = 4626, Miss_rate = 1.000, Pending_hits = 0, Reservation_fails = 37350
	L1D_cache_core[9]: Access = 4112, Miss = 4112, Miss_rate = 1.000, Pending_hits = 0, Reservation_fails = 35450
	L1D_cache_core[10]: Access = 4626, Miss = 4626, Miss_rate = 1.000, Pending_hits = 0, Reservation_fails = 34835
	L1D_cache_core[11]: Access = 4626, Miss = 4626, Miss_rate = 1.000, Pending_hits = 0, Reservation_fails = 36113
	L1D_cache_core[12]: Access = 4112, Miss = 4112, Miss_rate = 1.000, Pending_hits = 0, Reservation_fails = 35044
	L1D_cache_core[13]: Access = 4112, Miss = 4112, Miss_rate = 1.000, Pending_hits = 0, Reservation_fails = 37368
	L1D_cache_core[14]: Access = 4626, Miss = 4626, Miss_rate = 1.000, Pending_hits = 0, Reservation_fails = 38561
	L1D_total_cache_accesses = 65792
	L1D_total_cache_misses = 65792
	L1D_total_cache_miss_rate = 1.0000
	L1D_total_cache_pending_hits = 0
	L1D_total_cache_reservation_fails = 540644
	L1D_cache_data_port_util = 0.000
	L1D_cache_fill_port_util = 0.069
L1C_cache:
	L1C_total_cache_accesses = 19712
	L1C_total_cache_misses = 480
	L1C_total_cache_miss_rate = 0.0244
	L1C_total_cache_pending_hits = 0
	L1C_total_cache_reservation_fails = 3404
L1T_cache:
	L1T_total_cache_accesses = 0
	L1T_total_cache_misses = 0
	L1T_total_cache_pending_hits = 0
	L1T_total_cache_reservation_fails = 0

Total_core_cache_stats:
	Total_core_cache_stats_breakdown[GLOBAL_ACC_R][MISS] = 65536
	Total_core_cache_stats_breakdown[GLOBAL_ACC_R][RESERVATION_FAIL] = 539581
	Total_core_cache_stats_breakdown[CONST_ACC_R][HIT] = 19232
	Total_core_cache_stats_breakdown[CONST_ACC_R][MISS] = 480
	Total_core_cache_stats_breakdown[CONST_ACC_R][RESERVATION_FAIL] = 3404
	Total_core_cache_stats_breakdown[GLOBAL_ACC_W][MISS] = 256
	Total_core_cache_stats_breakdown[GLOBAL_ACC_W][RESERVATION_FAIL] = 1063
	Total_core_cache_stats_breakdown[INST_ACC_R][HIT] = 463616
	Total_core_cache_stats_breakdown[INST_ACC_R][MISS] = 2026
	Total_core_cache_stats_breakdown[INST_ACC_R][RESERVATION_FAIL] = 6262
Shader 0 warp_id issue ditsribution:
warp_id:
0, 1, 2, 3, 4, 5, 6, 7, 8, 9, 10, 11, 12, 13, 14, 15, 16, 17, 18, 19, 20, 21, 22, 23, 24, 25, 26, 27, 28, 29, 30, 31, 32, 33, 34, 35, 36, 37, 38, 39, 40, 41, 42, 43, 44, 45, 46, 47, 
distro:
2148, 1644, 1564, 1564, 1484, 1484, 1484, 1484, 2148, 1644, 1564, 1564, 1484, 1484, 1484, 1484, 1074, 822, 782, 782, 742, 742, 742, 742, 1074, 822, 782, 782, 742, 742, 742, 742, 1074, 822, 782, 782, 742, 742, 742, 742, 1074, 822, 782, 782, 742, 742, 742, 742, 
gpgpu_n_tot_thrd_icount = 26329088
gpgpu_n_tot_w_icount = 822784
gpgpu_n_stall_shd_mem = 544048
gpgpu_n_mem_read_local = 0
gpgpu_n_mem_write_local = 0
gpgpu_n_mem_read_global = 65536
gpgpu_n_mem_write_global = 256
gpgpu_n_mem_texture = 0
gpgpu_n_mem_const = 15
gpgpu_n_load_insn  = 2097152
gpgpu_n_store_insn = 256
gpgpu_n_shmem_insn = 1048064
gpgpu_n_tex_insn = 0
gpgpu_n_const_mem_insn = 0
gpgpu_n_param_mem_insn = 622848
gpgpu_n_shmem_bkconflict = 0
gpgpu_n_cache_bkconflict = 0
gpgpu_n_intrawarp_mshr_merge = 0
gpgpu_n_cmem_portconflict = 3404
gpgpu_stall_shd_mem[c_mem][bk_conf] = 3404
gpgpu_stall_shd_mem[c_mem][mshr_rc] = 0
gpgpu_stall_shd_mem[c_mem][icnt_rc] = 0
gpgpu_stall_shd_mem[c_mem][data_port_stall] = 0
gpgpu_stall_shd_mem[t_mem][mshr_rc] = 0
gpgpu_stall_shd_mem[t_mem][icnt_rc] = 0
gpgpu_stall_shd_mem[t_mem][data_port_stall] = 0
gpgpu_stall_shd_mem[s_mem][bk_conf] = 0
gpgpu_stall_shd_mem[gl_mem][bk_conf] = 0
gpgpu_stall_shd_mem[gl_mem][coal_stall] = 540644
gpgpu_stall_shd_mem[gl_mem][data_port_stall] = 0
gpgpu_stall_shd_mem[g_mem_ld][mshr_rc] = 0
gpgpu_stall_shd_mem[g_mem_ld][icnt_rc] = 0
gpgpu_stall_shd_mem[g_mem_ld][wb_icnt_rc] = 0
gpgpu_stall_shd_mem[g_mem_ld][wb_rsrv_fail] = 0
gpgpu_stall_shd_mem[g_mem_st][mshr_rc] = 0
gpgpu_stall_shd_mem[g_mem_st][icnt_rc] = 0
gpgpu_stall_shd_mem[g_mem_st][wb_icnt_rc] = 0
gpgpu_stall_shd_mem[g_mem_st][wb_rsrv_fail] = 0
gpgpu_stall_shd_mem[l_mem_ld][mshr_rc] = 0
gpgpu_stall_shd_mem[l_mem_ld][icnt_rc] = 0
gpgpu_stall_shd_mem[l_mem_ld][wb_icnt_rc] = 0
gpgpu_stall_shd_mem[l_mem_ld][wb_rsrv_fail] = 0
gpgpu_stall_shd_mem[l_mem_st][mshr_rc] = 0
gpgpu_stall_shd_mem[l_mem_st][icnt_rc] = 0
gpgpu_stall_shd_mem[l_mem_ld][wb_icnt_rc] = 0
gpgpu_stall_shd_mem[l_mem_ld][wb_rsrv_fail] = 0
gpu_reg_bank_conflict_stalls = 0
Warp Occupancy Distribution:
Stall:753999	W0_Idle:26503	W0_Scoreboard:286190	W1:6656	W2:5120	W3:0	W4:5120	W5:0	W6:0	W7:0	W8:5120	W9:0	W10:0	W11:0	W12:0	W13:0	W14:0	W15:0	W16:5120	W17:0	W18:0	W19:0	W20:0	W21:0	W22:0	W23:0	W24:0	W25:0	W26:0	W27:0	W28:0	W29:0	W30:0	W31:0	W32:795648
traffic_breakdown_coretomem[CONST_ACC_R] = 120 {8:15,}
traffic_breakdown_coretomem[GLOBAL_ACC_R] = 524288 {8:65536,}
traffic_breakdown_coretomem[GLOBAL_ACC_W] = 10240 {40:256,}
traffic_breakdown_coretomem[INST_ACC_R] = 840 {8:105,}
traffic_breakdown_memtocore[CONST_ACC_R] = 1080 {72:15,}
traffic_breakdown_memtocore[GLOBAL_ACC_R] = 8912896 {136:65536,}
traffic_breakdown_memtocore[GLOBAL_ACC_W] = 2048 {8:256,}
traffic_breakdown_memtocore[INST_ACC_R] = 14280 {136:105,}
maxmrqlatency = 501 
maxdqlatency = 0 
maxmflatency = 871 
averagemflatency = 351 
max_icnt2mem_latency = 249 
max_icnt2sh_latency = 64924 
mrq_lat_table:41460 	1589 	2053 	4095 	7607 	5724 	2751 	271 	18 	0 	0 	0 	0 	0 	0 	0 	0 	0 	0 	0 	0 	0 	0 	0 	0 	0 	0 	0 	0 	0 	0 	0 	
dq_lat_table:0 	0 	0 	0 	0 	0 	0 	0 	0 	0 	0 	0 	0 	0 	0 	0 	0 	0 	0 	0 	0 	0 	0 	0 	0 	0 	0 	0 	0 	0 	0 	0 	
mf_lat_table:0 	0 	0 	0 	0 	0 	0 	227 	63727 	1853 	0 	0 	0 	0 	0 	0 	0 	0 	0 	0 	0 	0 	0 	0 	0 	0 	0 	0 	0 	0 	0 	0 	
icnt2mem_lat_table:0 	0 	0 	57846 	4999 	1389 	1231 	447 	0 	0 	0 	0 	0 	0 	0 	0 	0 	0 	0 	0 	0 	0 	0 	0 	
icnt2sh_lat_table:0 	0 	0 	8292 	35175 	20599 	1485 	0 	0 	0 	0 	0 	0 	0 	78 	178 	0 	0 	0 	0 	0 	0 	0 	0 	
mf_lat_pw_table:0 	0 	0 	0 	0 	0 	0 	2 	125 	0 	0 	0 	0 	0 	0 	0 	0 	0 	0 	0 	0 	0 	0 	0 	0 	0 	0 	0 	0 	0 	0 	0 	
maximum concurrent accesses to same row:
dram[0]:         6         6         7         4         5         6         6         5         6         5         6         5        10         8         8         5 
dram[1]:         6         6         4         4         5         6         6         6         6         4         6         5        10         6         6         6 
dram[2]:         6         6         4         8         4         4         6         6         6         6         6         6         6         8         6         8 
dram[3]:         6         6         4         5         5         4         6         6         6         5         6         6         6         8         5         6 
dram[4]:         6         6         6         4         4         5         6         6         5         5         6         6        12         6         6         6 
dram[5]:         6         6         5         4         6         4         6         5         6         4         6         8        10         6         6         6 
maximum service time to same row:
dram[0]:      1065      1951      1957      1972      1922      1988      1959      1935      1963      1957      1973      1966      1976      1997      1938      1941 
dram[1]:      1443      1954      1961      1979      1926      1993      1963      1938      1967      1960      1977      1999      1981      2001      1943      1944 
dram[2]:      1963      1929      1965      1937      1929      1953      1966      1954      1972      1919      1981      1944      1985      1969      1947      1971 
dram[3]:      1966      1932      1969      1941      1934      1957      1976      1959      1977      1924      1985      1949      1988      1972      1951      1975 
dram[4]:      1943      1937      1965      1944      1979      1961      1926      1963      1949      1928      1959      1953      1985      1976      1932      1979 
dram[5]:      1947      1941      1969      1949      1986      1965      1931      1966      1953      1932      1963      1957      1993      1989      1937      1982 
average row accesses per activate:
dram[0]:  1.394628  1.320236  1.354839  1.307393  1.375000  1.345168  1.338403  1.333333  1.375000  1.346080  1.376258  1.318008  1.417722  1.344000  1.374233  1.320236 
dram[1]:  1.348000  1.341317  1.320236  1.284895  1.265306  1.304015  1.346080  1.320825  1.348659  1.335863  1.376258  1.291353  1.371429  1.282443  1.377049  1.312500 
dram[2]:  1.361616  1.354839  1.287356  1.357576  1.339882  1.323017  1.338403  1.335863  1.366990  1.330813  1.305344  1.386179  1.360324  1.374233  1.352113  1.360324 
dram[3]:  1.348697  1.333333  1.284895  1.335984  1.306513  1.266667  1.296501  1.320825  1.361702  1.366990  1.307839  1.377778  1.344000  1.349398  1.330693  1.341317 
dram[4]:  1.357576  1.304854  1.352113  1.284895  1.358566  1.357143  1.385827  1.315888  1.364341  1.359073  1.398785  1.358566  1.317647  1.368635  1.385567  1.335984 
dram[5]:  1.335984  1.335984  1.294798  1.299807  1.309021  1.295455  1.361702  1.320825  1.375000  1.335863  1.361111  1.281955  1.385567  1.309942  1.391304  1.330693 
average row locality = 65568/48971 = 1.338915
number of total memory accesses made:
dram[0]:         0         0         0         0         0         0         0         0         0         0         0         0         0         0         0         0 
dram[1]:         0         0         0         0         0         0         0         0         0         0         0         0         0         0         0         0 
dram[2]:         0         0         0         0         0         0         0         0         0         0         0         0         0         0         0         0 
dram[3]:         0         0         0         0         0         0         0         0         0         0         0         0         0         0         0         0 
dram[4]:         0         0         0         0         0         0         0         0         0         0         0         0         0         0         0         0 
dram[5]:         0         0         0         0         0         0         0         0         0         0         0         0         0         0         0         0 
total accesses: 0
min_bank_accesses = 0!
min_chip_accesses = 0!
number of total read accesses:
dram[0]:       675       672       672       672       682       682       704       704       704       704       684       684       672       672       672       672 
dram[1]:       674       672       672       672       682       682       704       704       704       704       684       684       672       672       672       672 
dram[2]:       674       672       672       672       682       684       704       704       704       704       684       682       672       672       672       672 
dram[3]:       673       672       672       672       682       684       704       704       704       704       684       682       672       672       672       672 
dram[4]:       672       672       672       672       682       684       704       704       704       704       684       682       672       672       672       672 
dram[5]:       672       672       672       672       682       684       704       704       704       704       684       682       672       672       672       672 
total reads: 65552
bank skew: 704/672 = 1.05
chip skew: 10927/10924 = 1.00
number of total write accesses:
dram[0]:         0         0         0         0         0         0         0         0         0         0         0         4         0         0         0         0 
dram[1]:         0         0         0         0         0         0         0         0         0         0         0         3         0         0         0         0 
dram[2]:         0         0         0         0         0         0         0         0         0         0         0         0         0         0         0         0 
dram[3]:         0         0         0         0         0         0         0         0         0         0         0         0         0         0         0         0 
dram[4]:         0         0         0         0         0         0         0         0         0         0         7         0         0         0         0         0 
dram[5]:         0         0         0         0         0         0         0         0         0         0         2         0         0         0         0         0 
total reads: 16
min_bank_accesses = 0!
min_chip_accesses = 0!
average mf latency per bank:
dram[0]:        373       349       368       349       367       352       370       353       363       340       363       365       372       347       366       349
dram[1]:        362       338       359       342       356       343       362       343       351       337       351       355       353       341       356       344
dram[2]:        350       351       351       347       352       354       355       354       347       342       347       348       354       352       357       345
dram[3]:        351       347       351       349       350       346       352       348       347       344       352       341       351       350       353       343
dram[4]:        364       344       362       343       361       340       370       354       359       346       384       344       363       348       360       343
dram[5]:        359       347       360       341       362       345       361       347       352       343       376       342       355       349       355       350
maximum mf latency per bank:
dram[0]:        678       677       645       659       653       633       771       631       707       611       715       632       661       646       653       613
dram[1]:        598       528       601       571       579       575       654       559       601       530       571       549       598       630       590       566
dram[2]:        611       602       573       628       644       749       642       667       605       613       635       706       703       653       648       595
dram[3]:        546       630       528       619       553       597       574       672       556       593       550       560       578       623       555       544
dram[4]:        632       628       640       599       638       637       779       679       625       683       871       598       666       594       741       630
dram[5]:        611       572       614       539       599       639       603       674       572       592       616       608       580       576       577       570

Number of Memory Banks Accessed per Memory Operation per Warp (from 0):
0	0	0	0	0	0	0	0	0	0	0	0	0	0	0	0	0	0	0	0	0	0	0	0	0	0	0	0	0	0	0	0	0	0	0	0	0	0	0	0	0	0	0	0	0	0	0	0	0	0	0	0	0	0	0	0	0	0	0	0	0	0	0	0	0	0	0	0	0	0	0	0	0	0	0	0	0	0	0	0	0	0	0	0	0	0	0	0	0	0	0	0	0	0	0	0	
Average # of Memory Banks Accessed per Memory Operation per Warp=-nan

position of mrq chosen
0	0	0	0	0	0	0	0	0	0	0	0	0	0	0	0	

average position of mrq chosen = -nan
Memory Partition 0: 
Cache L2_bank_000:
MSHR contents

Cache L2_bank_001:
MSHR contents

In Dram Latency Queue (total = 0): 
DRAM[0]: 16 bks, busW=4 BL=8 CL=12, tRRD=2 tCCD=6, tRCD=12 tRAS=28 tRP=12 tRC=40
n_cmd=85700 n_nop=47686 n_act=8086 n_pre=8070 n_req=10931 n_rd=21854 n_write=4 bw_util=0.5101
n_activity=78247 dram_eff=0.5587
bk0: 1350a 62140i bk1: 1344a 62168i bk2: 1344a 61909i bk3: 1344a 62104i bk4: 1364a 60924i bk5: 1364a 61643i bk6: 1408a 59951i bk7: 1408a 59490i bk8: 1408a 61515i bk9: 1408a 62368i bk10: 1368a 62076i bk11: 1368a 60743i bk12: 1344a 62023i bk13: 1344a 61693i bk14: 1344a 61227i bk15: 1344a 61111i 
dram_util_bins: 0 0 0 0 0 0 0 0 0 0
dram_eff_bins: 0 0 0 0 0 0 0 0 0 0
mrqq: max=16 avg=2.22772
Memory Partition 1: 
Cache L2_bank_002:
MSHR contents

Cache L2_bank_003:
MSHR contents

In Dram Latency Queue (total = 0): 
DRAM[1]: 16 bks, busW=4 BL=8 CL=12, tRRD=2 tCCD=6, tRCD=12 tRAS=28 tRP=12 tRC=40
n_cmd=85700 n_nop=47375 n_act=8243 n_pre=8227 n_req=10929 n_rd=21852 n_write=3 bw_util=0.51
n_activity=78357 dram_eff=0.5578
bk0: 1348a 62870i bk1: 1344a 63327i bk2: 1344a 62463i bk3: 1344a 62337i bk4: 1364a 61124i bk5: 1364a 61839i bk6: 1408a 60724i bk7: 1408a 60887i bk8: 1408a 62385i bk9: 1408a 62559i bk10: 1368a 62931i bk11: 1368a 61587i bk12: 1344a 62674i bk13: 1344a 61613i bk14: 1344a 61946i bk15: 1344a 61272i 
dram_util_bins: 0 0 0 0 0 0 0 0 0 0
dram_eff_bins: 0 0 0 0 0 0 0 0 0 0
mrqq: max=16 avg=1.77912
Memory Partition 2: 
Cache L2_bank_004:
MSHR contents

Cache L2_bank_005:
MSHR contents

In Dram Latency Queue (total = 0): 
DRAM[2]: 16 bks, busW=4 BL=8 CL=12, tRRD=2 tCCD=6, tRCD=12 tRAS=28 tRP=12 tRC=40
n_cmd=85700 n_nop=47622 n_act=8121 n_pre=8105 n_req=10926 n_rd=21852 n_write=0 bw_util=0.51
n_activity=78387 dram_eff=0.5575
bk0: 1348a 63286i bk1: 1344a 62813i bk2: 1344a 62350i bk3: 1344a 63195i bk4: 1364a 62176i bk5: 1368a 61136i bk6: 1408a 60719i bk7: 1408a 60020i bk8: 1408a 62701i bk9: 1408a 62210i bk10: 1368a 61773i bk11: 1364a 62671i bk12: 1344a 62434i bk13: 1344a 62120i bk14: 1344a 61873i bk15: 1344a 62182i 
dram_util_bins: 0 0 0 0 0 0 0 0 0 0
dram_eff_bins: 0 0 0 0 0 0 0 0 0 0
mrqq: max=16 avg=1.87722
Memory Partition 3: 
Cache L2_bank_006:
MSHR contents

Cache L2_bank_007:
MSHR contents

In Dram Latency Queue (total = 0): 
DRAM[3]: 16 bks, busW=4 BL=8 CL=12, tRRD=2 tCCD=6, tRCD=12 tRAS=28 tRP=12 tRC=40
n_cmd=85700 n_nop=47424 n_act=8221 n_pre=8205 n_req=10925 n_rd=21850 n_write=0 bw_util=0.5099
n_activity=78292 dram_eff=0.5582
bk0: 1346a 63031i bk1: 1344a 62853i bk2: 1344a 62331i bk3: 1344a 63021i bk4: 1364a 61532i bk5: 1368a 61453i bk6: 1408a 60160i bk7: 1408a 59347i bk8: 1408a 62705i bk9: 1408a 62419i bk10: 1368a 61768i bk11: 1364a 63264i bk12: 1344a 62723i bk13: 1344a 61847i bk14: 1344a 61927i bk15: 1344a 61789i 
dram_util_bins: 0 0 0 0 0 0 0 0 0 0
dram_eff_bins: 0 0 0 0 0 0 0 0 0 0
mrqq: max=16 avg=1.7544
Memory Partition 4: 
Cache L2_bank_008:
MSHR contents

Cache L2_bank_009:
MSHR contents

In Dram Latency Queue (total = 0): 
DRAM[4]: 16 bks, busW=4 BL=8 CL=12, tRRD=2 tCCD=6, tRCD=12 tRAS=28 tRP=12 tRC=40
n_cmd=85700 n_nop=47664 n_act=8098 n_pre=8082 n_req=10931 n_rd=21848 n_write=8 bw_util=0.5101
n_activity=78032 dram_eff=0.5602
bk0: 1344a 62914i bk1: 1344a 62536i bk2: 1344a 62790i bk3: 1344a 61657i bk4: 1364a 61664i bk5: 1368a 62041i bk6: 1408a 60031i bk7: 1408a 59144i bk8: 1408a 61365i bk9: 1408a 61676i bk10: 1368a 61564i bk11: 1364a 62271i bk12: 1344a 61576i bk13: 1344a 62260i bk14: 1344a 61989i bk15: 1344a 61478i 
dram_util_bins: 0 0 0 0 0 0 0 0 0 0
dram_eff_bins: 0 0 0 0 0 0 0 0 0 0
mrqq: max=16 avg=2.14188
Memory Partition 5: 
Cache L2_bank_010:
MSHR contents

Cache L2_bank_011:
MSHR contents

In Dram Latency Queue (total = 0): 
DRAM[5]: 16 bks, busW=4 BL=8 CL=12, tRRD=2 tCCD=6, tRCD=12 tRAS=28 tRP=12 tRC=40
n_cmd=85700 n_nop=47462 n_act=8202 n_pre=8186 n_req=10926 n_rd=21848 n_write=2 bw_util=0.5099
n_activity=78400 dram_eff=0.5574
bk0: 1344a 62332i bk1: 1344a 63047i bk2: 1344a 61432i bk3: 1344a 62609i bk4: 1364a 61319i bk5: 1368a 61212i bk6: 1408a 60323i bk7: 1408a 59989i bk8: 1408a 62537i bk9: 1408a 61811i bk10: 1368a 62019i bk11: 1364a 61995i bk12: 1344a 62585i bk13: 1344a 61977i bk14: 1344a 62101i bk15: 1344a 61531i 
dram_util_bins: 0 0 0 0 0 0 0 0 0 0
dram_eff_bins: 0 0 0 0 0 0 0 0 0 0
mrqq: max=16 avg=1.83985

========= L2 cache stats =========
L2_cache_bank[0]: Access = 5507, Miss = 5465, Miss_rate = 0.992, Pending_hits = 9, Reservation_fails = 1381
L2_cache_bank[1]: Access = 5524, Miss = 5462, Miss_rate = 0.989, Pending_hits = 2, Reservation_fails = 80
L2_cache_bank[2]: Access = 5492, Miss = 5464, Miss_rate = 0.995, Pending_hits = 6, Reservation_fails = 457
L2_cache_bank[3]: Access = 5524, Miss = 5462, Miss_rate = 0.989, Pending_hits = 1, Reservation_fails = 136
L2_cache_bank[4]: Access = 5492, Miss = 5464, Miss_rate = 0.995, Pending_hits = 1, Reservation_fails = 304
L2_cache_bank[5]: Access = 5462, Miss = 5462, Miss_rate = 1.000, Pending_hits = 0, Reservation_fails = 638
L2_cache_bank[6]: Access = 5477, Miss = 5463, Miss_rate = 0.997, Pending_hits = 1, Reservation_fails = 63
L2_cache_bank[7]: Access = 5462, Miss = 5462, Miss_rate = 1.000, Pending_hits = 0, Reservation_fails = 174
L2_cache_bank[8]: Access = 5524, Miss = 5462, Miss_rate = 0.989, Pending_hits = 4, Reservation_fails = 783
L2_cache_bank[9]: Access = 5462, Miss = 5462, Miss_rate = 1.000, Pending_hits = 0, Reservation_fails = 115
L2_cache_bank[10]: Access = 5524, Miss = 5462, Miss_rate = 0.989, Pending_hits = 0, Reservation_fails = 203
L2_cache_bank[11]: Access = 5462, Miss = 5462, Miss_rate = 1.000, Pending_hits = 0, Reservation_fails = 7
L2_total_cache_accesses = 65912
L2_total_cache_misses = 65552
L2_total_cache_miss_rate = 0.9945
L2_total_cache_pending_hits = 24
L2_total_cache_reservation_fails = 4341
L2_total_cache_breakdown:
	L2_cache_stats_breakdown[GLOBAL_ACC_R][MISS] = 65536
	L2_cache_stats_breakdown[GLOBAL_ACC_R][RESERVATION_FAIL] = 3780
	L2_cache_stats_breakdown[CONST_ACC_R][HIT] = 11
	L2_cache_stats_breakdown[CONST_ACC_R][HIT_RESERVED] = 3
	L2_cache_stats_breakdown[CONST_ACC_R][MISS] = 1
	L2_cache_stats_breakdown[CONST_ACC_R][RESERVATION_FAIL] = 108
	L2_cache_stats_breakdown[GLOBAL_ACC_W][HIT] = 241
	L2_cache_stats_breakdown[GLOBAL_ACC_W][HIT_RESERVED] = 7
	L2_cache_stats_breakdown[GLOBAL_ACC_W][MISS] = 8
	L2_cache_stats_breakdown[INST_ACC_R][HIT] = 84
	L2_cache_stats_breakdown[INST_ACC_R][HIT_RESERVED] = 14
	L2_cache_stats_breakdown[INST_ACC_R][MISS] = 7
	L2_cache_stats_breakdown[INST_ACC_R][RESERVATION_FAIL] = 453
L2_cache_data_port_util = 0.001
L2_cache_fill_port_util = 0.337

icnt_total_pkts_mem_to_simt=328506
icnt_total_pkts_simt_to_mem=66168
LD_mem_lat_dist  0 0 0 0 0 0 0 0 0 0 0 0 0 0 0 0 0 0 0 0 0 0 0 0 0 0 0
ST_mem_lat_dist  0 0 0 0 0 0 0 0 0 0 0 0 0 0 0 0 0 0 0 0 0 0 0 0 0 0 0
----------------------------Interconnect-DETAILS--------------------------------
Class 0:
Packet latency average = 17.3621
	minimum = 6
	maximum = 125
Network latency average = 14.1875
	minimum = 6
	maximum = 112
Slowest packet = 6109
Flit latency average = 13.9205
	minimum = 6
	maximum = 112
Slowest flit = 55556
Fragmentation average = 0
	minimum = 0
	maximum = 0
Injected packet rate average = 0.0752002
	minimum = 0.0634578 (at node 0)
	maximum = 0.0850828 (at node 16)
Accepted packet rate average = 0.0752002
	minimum = 0.0634578 (at node 0)
	maximum = 0.0850828 (at node 16)
Injected flit rate average = 0.225145
	minimum = 0.0637043 (at node 0)
	maximum = 0.423643 (at node 15)
Accepted flit rate average= 0.225145
	minimum = 0.0841278 (at node 20)
	maximum = 0.355734 (at node 2)
Injected packet length average = 2.99395
Accepted packet length average = 2.99395
Total in-flight flits = 0 (0 measured)
====== Overall Traffic Statistics ======
====== Traffic class 0 ======
Packet latency average = 17.3621 (1 samples)
	minimum = 6 (1 samples)
	maximum = 125 (1 samples)
Network latency average = 14.1875 (1 samples)
	minimum = 6 (1 samples)
	maximum = 112 (1 samples)
Flit latency average = 13.9205 (1 samples)
	minimum = 6 (1 samples)
	maximum = 112 (1 samples)
Fragmentation average = 0 (1 samples)
	minimum = 0 (1 samples)
	maximum = 0 (1 samples)
Injected packet rate average = 0.0752002 (1 samples)
	minimum = 0.0634578 (1 samples)
	maximum = 0.0850828 (1 samples)
Accepted packet rate average = 0.0752002 (1 samples)
	minimum = 0.0634578 (1 samples)
	maximum = 0.0850828 (1 samples)
Injected flit rate average = 0.225145 (1 samples)
	minimum = 0.0637043 (1 samples)
	maximum = 0.423643 (1 samples)
Accepted flit rate average = 0.225145 (1 samples)
	minimum = 0.0841278 (1 samples)
	maximum = 0.355734 (1 samples)
Injected packet size average = 2.99395 (1 samples)
Accepted packet size average = 2.99395 (1 samples)
Hops average = 1 (1 samples)
----------------------------END-of-Interconnect-DETAILS-------------------------


gpgpu_simulation_time = 0 days, 0 hrs, 1 min, 20 sec (80 sec)
gpgpu_simulation_rate = 305520 (inst/sec)
gpgpu_simulation_rate = 811 (cycle/sec)
GPGPU-Sim: synchronize waiting for inactive GPU simulation
GPGPU-Sim API: Stream Manager State
GPGPU-Sim: detected inactive GPU simulation thread
GPU time: 80086.125000 msecs.
Reading back GPU result...
Checking GPU results...
..running CPU scalar product calculation
...comparing the results
L1 error: 3.070748E-08
TEST PASSED
Shutting down...
