

        *** GPGPU-Sim Simulator Version 3.2.2  [build 0] ***


GPGPU-Sim PTX: simulation mode 0 (can change with PTX_SIM_MODE_FUNC environment variable:
               1=functional simulation only, 0=detailed performance simulator)
GPGPU-Sim: Configuration options:

-network_mode                           1 # Interconnection network mode
-inter_config_file   config_fermi_islip.icnt # Interconnection network config file
-gpgpu_ptx_use_cuobjdump                    1 # Use cuobjdump to extract ptx and sass from binaries
-gpgpu_experimental_lib_support                    0 # Try to extract code from cuda libraries [Broken because of unknown cudaGetExportTable]
-gpgpu_ptx_convert_to_ptxplus                    0 # Convert SASS (native ISA) to ptxplus and run ptxplus
-gpgpu_ptx_force_max_capability                   20 # Force maximum compute capability
-gpgpu_ptx_inst_debug_to_file                    0 # Dump executed instructions' debug information to file
-gpgpu_ptx_inst_debug_file       inst_debug.txt # Executed instructions' debug output file
-gpgpu_ptx_inst_debug_thread_uid                    1 # Thread UID for executed instructions' debug output
-gpgpu_simd_model                       1 # 1 = post-dominator
-gpgpu_shader_core_pipeline              1536:32 # shader core pipeline config, i.e., {<nthread>:<warpsize>}
-gpgpu_tex_cache:l1  4:128:24,L:R:m:N:L,F:128:4,128:2 # per-shader L1 texture cache  (READ-ONLY) config  {<nsets>:<bsize>:<assoc>,<rep>:<wr>:<alloc>:<wr_alloc>,<mshr>:<N>:<merge>,<mq>:<rf>}
-gpgpu_const_cache:l1 64:64:2,L:R:f:N:L,A:2:32,4 # per-shader L1 constant memory cache  (READ-ONLY) config  {<nsets>:<bsize>:<assoc>,<rep>:<wr>:<alloc>:<wr_alloc>,<mshr>:<N>:<merge>,<mq>} 
-gpgpu_cache:il1     4:128:4,L:R:f:N:L,A:2:32,4 # shader L1 instruction cache config  {<nsets>:<bsize>:<assoc>,<rep>:<wr>:<alloc>:<wr_alloc>,<mshr>:<N>:<merge>,<mq>} 
-gpgpu_cache:dl1     64:128:4,L:L:m:N:H,A:32:8,8 # per-shader L1 data cache config  {<nsets>:<bsize>:<assoc>,<rep>:<wr>:<alloc>:<wr_alloc>,<mshr>:<N>:<merge>,<mq> | none}
-gpgpu_cache:dl1PrefL1                 none # per-shader L1 data cache config  {<nsets>:<bsize>:<assoc>,<rep>:<wr>:<alloc>:<wr_alloc>,<mshr>:<N>:<merge>,<mq> | none}
-gpgpu_cache:dl1PreShared                 none # per-shader L1 data cache config  {<nsets>:<bsize>:<assoc>,<rep>:<wr>:<alloc>:<wr_alloc>,<mshr>:<N>:<merge>,<mq> | none}
-gmem_skip_L1D                          0 # global memory access skip L1D cache (implements -Xptxas -dlcm=cg, default=no skip)
-gpgpu_perfect_mem                      0 # enable perfect memory mode (no cache miss)
-n_regfile_gating_group                    4 # group of lanes that should be read/written together)
-gpgpu_clock_gated_reg_file                    0 # enable clock gated reg file for power calculations
-gpgpu_clock_gated_lanes                    0 # enable clock gated lanes for power calculations
-gpgpu_shader_registers                32768 # Number of registers per shader core. Limits number of concurrent CTAs. (default 8192)
-gpgpu_shader_cta                       8 # Maximum number of concurrent CTAs in shader (default 8)
-gpgpu_num_cta_barriers                   16 # Maximum number of named barriers per CTA (default 16)
-gpgpu_n_clusters                      15 # number of processing clusters
-gpgpu_n_cores_per_cluster                    1 # number of simd cores per cluster
-gpgpu_n_cluster_ejection_buffer_size                    8 # number of packets in ejection buffer
-gpgpu_n_ldst_response_buffer_size                    2 # number of response packets in ld/st unit ejection buffer
-gpgpu_shmem_size                   16384 # Size of shared memory per shader core (default 16kB)
-gpgpu_shmem_size                   49152 # Size of shared memory per shader core (default 16kB)
-gpgpu_shmem_size_PrefL1                16384 # Size of shared memory per shader core (default 16kB)
-gpgpu_shmem_size_PrefShared                16384 # Size of shared memory per shader core (default 16kB)
-gpgpu_shmem_num_banks                   32 # Number of banks in the shared memory in each shader core (default 16)
-gpgpu_shmem_limited_broadcast                    0 # Limit shared memory to do one broadcast per cycle (default on)
-gpgpu_shmem_warp_parts                    1 # Number of portions a warp is divided into for shared memory bank conflict check 
-gpgpu_warpdistro_shader                   -1 # Specify which shader core to collect the warp size distribution from
-gpgpu_warp_issue_shader                    0 # Specify which shader core to collect the warp issue distribution from
-gpgpu_local_mem_map                    1 # Mapping from local memory space address to simulated GPU physical address space (default = enabled)
-gpgpu_num_reg_banks                   16 # Number of register banks (default = 8)
-gpgpu_reg_bank_use_warp_id                    0 # Use warp ID in mapping registers to banks (default = off)
-gpgpu_operand_collector_num_units_sp                    6 # number of collector units (default = 4)
-gpgpu_operand_collector_num_units_sfu                    8 # number of collector units (default = 4)
-gpgpu_operand_collector_num_units_mem                    2 # number of collector units (default = 2)
-gpgpu_operand_collector_num_units_gen                    0 # number of collector units (default = 0)
-gpgpu_operand_collector_num_in_ports_sp                    2 # number of collector unit in ports (default = 1)
-gpgpu_operand_collector_num_in_ports_sfu                    1 # number of collector unit in ports (default = 1)
-gpgpu_operand_collector_num_in_ports_mem                    1 # number of collector unit in ports (default = 1)
-gpgpu_operand_collector_num_in_ports_gen                    0 # number of collector unit in ports (default = 0)
-gpgpu_operand_collector_num_out_ports_sp                    2 # number of collector unit in ports (default = 1)
-gpgpu_operand_collector_num_out_ports_sfu                    1 # number of collector unit in ports (default = 1)
-gpgpu_operand_collector_num_out_ports_mem                    1 # number of collector unit in ports (default = 1)
-gpgpu_operand_collector_num_out_ports_gen                    0 # number of collector unit in ports (default = 0)
-gpgpu_coalesce_arch                   13 # Coalescing arch (default = 13, anything else is off for now)
-gpgpu_num_sched_per_core                    2 # Number of warp schedulers per core
-gpgpu_max_insn_issue_per_warp                    1 # Max number of instructions that can be issued per warp in one cycle by scheduler
-gpgpu_simt_core_sim_order                    1 # Select the simulation order of cores in a cluster (0=Fix, 1=Round-Robin)
-gpgpu_pipeline_widths        2,1,1,2,1,1,2 # Pipeline widths ID_OC_SP,ID_OC_SFU,ID_OC_MEM,OC_EX_SP,OC_EX_SFU,OC_EX_MEM,EX_WB
-gpgpu_num_sp_units                     2 # Number of SP units (default=1)
-gpgpu_num_sfu_units                    1 # Number of SF units (default=1)
-gpgpu_num_mem_units                    1 # Number if ldst units (default=1) WARNING: not hooked up to anything
-gpgpu_scheduler                      gto # Scheduler configuration: < lrr | gto | two_level_active > If two_level_active:<num_active_warps>:<inner_prioritization>:<outer_prioritization>For complete list of prioritization values see shader.h enum scheduler_prioritization_typeDefault: gto
-gpgpu_dram_scheduler                    1 # 0 = fifo, 1 = FR-FCFS (defaul)
-gpgpu_dram_partition_queues              8:8:8:8 # i2$:$2d:d2$:$2i
-l2_ideal                               0 # Use a ideal L2 cache that always hit
-gpgpu_cache:dl2     64:128:8,L:B:m:W:L,A:32:4,4:0,32 # unified banked L2 data cache config  {<nsets>:<bsize>:<assoc>,<rep>:<wr>:<alloc>:<wr_alloc>,<mshr>:<N>:<merge>,<mq>}
-gpgpu_cache:dl2_texture_only                    0 # L2 cache used for texture only
-gpgpu_n_mem                            6 # number of memory modules (e.g. memory controllers) in gpu
-gpgpu_n_sub_partition_per_mchannel                    2 # number of memory subpartition in each memory module
-gpgpu_n_mem_per_ctrlr                    2 # number of memory chips per memory controller
-gpgpu_memlatency_stat                   14 # track and display latency statistics 0x2 enables MC, 0x4 enables queue logs
-gpgpu_frfcfs_dram_sched_queue_size                   16 # 0 = unlimited (default); # entries per chip
-gpgpu_dram_return_queue_size                  116 # 0 = unlimited (default); # entries per chip
-gpgpu_dram_buswidth                    4 # default = 4 bytes (8 bytes per cycle at DDR)
-gpgpu_dram_burst_length                    8 # Burst length of each DRAM request (default = 4 data bus cycle)
-dram_data_command_freq_ratio                    4 # Frequency ratio between DRAM data bus and command bus (default = 2 times, i.e. DDR)
-gpgpu_dram_timing_opt nbk=16:CCD=2:RRD=6:RCD=12:RAS=28:RP=12:RC=40: CL=12:WL=4:CDLR=5:WR=12:nbkgrp=4:CCDL=3:RTPL=2 # DRAM timing parameters = {nbk:tCCD:tRRD:tRCD:tRAS:tRP:tRC:CL:WL:tCDLR:tWR:nbkgrp:tCCDL:tRTPL}
-rop_latency                          120 # ROP queue latency (default 85)
-dram_latency                         100 # DRAM latency (default 30)
-gpgpu_mem_addr_mapping dramid@8;00000000.00000000.00000000.00000000.0000RRRR.RRRRRRRR.BBBCCCCB.CCSSSSSS # mapping memory address to dram model {dramid@<start bit>;<memory address map>}
-gpgpu_mem_addr_test                    0 # run sweep test to check address mapping for aliased address
-gpgpu_mem_address_mask                    1 # 0 = old addressing mask, 1 = new addressing mask, 2 = new add. mask + flipped bank sel and chip sel bits
-gpuwattch_xml_file  gpuwattch_gtx480.xml # GPUWattch XML file
-power_simulation_enabled                    1 # Turn on power simulator (1=On, 0=Off)
-power_per_cycle_dump                    0 # Dump detailed power output each cycle
-power_trace_enabled                    0 # produce a file for the power trace (1=On, 0=Off)
-power_trace_zlevel                     6 # Compression level of the power trace output log (0=no comp, 9=highest)
-steady_power_levels_enabled                    0 # produce a file for the steady power levels (1=On, 0=Off)
-steady_state_definition                  8:4 # allowed deviation:number of samples
-gpgpu_max_cycle                        0 # terminates gpu simulation early (0 = no limit)
-gpgpu_max_insn                         0 # terminates gpu simulation early (0 = no limit)
-gpgpu_max_cta                          0 # terminates gpu simulation early (0 = no limit)
-gpgpu_runtime_stat                   500 # display runtime statistics such as dram utilization {<freq>:<flag>}
-liveness_message_freq                    1 # Minimum number of seconds between simulation liveness messages (0 = always print)
-gpgpu_flush_l1_cache                    0 # Flush L1 cache at the end of each kernel call
-gpgpu_flush_l2_cache                    0 # Flush L2 cache at the end of each kernel call
-gpgpu_deadlock_detect                    1 # Stop the simulation at deadlock (1=on (default), 0=off)
-gpgpu_ptx_instruction_classification                    0 # if enabled will classify ptx instruction types per kernel (Max 255 kernels now)
-gpgpu_ptx_sim_mode                     0 # Select between Performance (default) or Functional simulation (1)
-gpgpu_clock_domains 700.0:700.0:700.0:924.0 # Clock Domain Frequencies in MhZ {<Core Clock>:<ICNT Clock>:<L2 Clock>:<DRAM Clock>}
-gpgpu_max_concurrent_kernel                    8 # maximum kernels that can run concurrently on GPU
-gpgpu_cflog_interval                    0 # Interval between each snapshot in control flow logger
-visualizer_enabled                     0 # Turn on visualizer output (1=On, 0=Off)
-visualizer_outputfile                 NULL # Specifies the output log file for visualizer
-visualizer_zlevel                      6 # Compression level of the visualizer output log (0=no comp, 9=highest)
-trace_enabled                          0 # Turn on traces
-trace_components                    none # comma seperated list of traces to enable. Complete list found in trace_streams.tup. Default none
-trace_sampling_core                    0 # The core which is printed using CORE_DPRINTF. Default 0
-trace_sampling_memory_partition                   -1 # The memory partition which is printed using MEMPART_DPRINTF. Default -1 (i.e. all)
-enable_ptx_file_line_stats                    1 # Turn on PTX source line statistic profiling. (1 = On)
-ptx_line_stats_filename gpgpu_inst_stats.txt # Output file for PTX source line statistics.
-save_embedded_ptx                      0 # saves ptx files embedded in binary as <n>.ptx
-keep                                   0 # keep intermediate files created by GPGPU-Sim when interfacing with external programs
-gpgpu_ptx_save_converted_ptxplus                    0 # Saved converted ptxplus to a file
-ptx_opcode_latency_int         4,13,4,5,145 # Opcode latencies for integers <ADD,MAX,MUL,MAD,DIV>Default 1,1,19,25,145
-ptx_opcode_latency_fp          4,13,4,5,39 # Opcode latencies for single precision floating points <ADD,MAX,MUL,MAD,DIV>Default 1,1,1,1,30
-ptx_opcode_latency_dp         8,19,8,8,330 # Opcode latencies for double precision floating points <ADD,MAX,MUL,MAD,DIV>Default 8,8,8,8,335
-ptx_opcode_initiation_int            1,2,2,1,8 # Opcode initiation intervals for integers <ADD,MAX,MUL,MAD,DIV>Default 1,1,4,4,32
-ptx_opcode_initiation_fp            1,2,1,1,4 # Opcode initiation intervals for single precision floating points <ADD,MAX,MUL,MAD,DIV>Default 1,1,1,1,5
-ptx_opcode_initiation_dp         8,16,8,8,130 # Opcode initiation intervals for double precision floating points <ADD,MAX,MUL,MAD,DIV>Default 8,8,8,8,130
DRAM Timing Options:
nbk                                    16 # number of banks
CCD                                     2 # column to column delay
RRD                                     6 # minimal delay between activation of rows in different banks
RCD                                    12 # row to column delay
RAS                                    28 # time needed to activate row
RP                                     12 # time needed to precharge (deactivate) row
RC                                     40 # row cycle time
CDLR                                    5 # switching from write to read (changes tWTR)
WR                                     12 # last data-in to row precharge
CL                                     12 # CAS latency
WL                                      4 # Write latency
nbkgrp                                  4 # number of bank groups
CCDL                                    3 # column to column delay between accesses to different bank groups
RTPL                                    2 # read to precharge delay between accesses to different bank groups
Total number of memory sub partition = 12
addr_dec_mask[CHIP]  = 0000000000000000 	high:64 low:0
addr_dec_mask[BK]    = 000000000000e100 	high:16 low:8
addr_dec_mask[ROW]   = 000000000fff0000 	high:28 low:16
addr_dec_mask[COL]   = 0000000000001eff 	high:13 low:0
addr_dec_mask[BURST] = 000000000000003f 	high:6 low:0
sub_partition_id_mask = 0000000000000100
GPGPU-Sim uArch: clock freqs: 700000000.000000:700000000.000000:700000000.000000:924000000.000000
GPGPU-Sim uArch: clock periods: 0.00000000142857142857:0.00000000142857142857:0.00000000142857142857:0.00000000108225108225
*** Initializing Memory Statistics ***
GPGPU-Sim uArch: interconnect node map (shaderID+MemID to icntID)
GPGPU-Sim uArch: Memory nodes ID start from index: 15
GPGPU-Sim uArch:    0   1   2   3   4
GPGPU-Sim uArch:    5   6   7   8   9
GPGPU-Sim uArch:   10  11  12  13  14
GPGPU-Sim uArch:   15  16  17  18  19
GPGPU-Sim uArch:   20  21  22  23  24
GPGPU-Sim uArch:   25  26
GPGPU-Sim uArch: interconnect node reverse map (icntID to shaderID+MemID)
GPGPU-Sim uArch: Memory nodes start from ID: 15
GPGPU-Sim uArch:    0   1   2   3   4
GPGPU-Sim uArch:    5   6   7   8   9
GPGPU-Sim uArch:   10  11  12  13  14
GPGPU-Sim uArch:   15  16  17  18  19
GPGPU-Sim uArch:   20  21  22  23  24
GPGPU-Sim uArch:   25  26
575cc336cf9f8f0a73559869c93333de  /home/scratch/adwait/applications/benchmarks/CUDA/BFS2/gpgpu_ptx_sim__BFS2
GPGPU-Sim uArch: performance model initialization complete.
GPGPU-Sim PTX: __cudaRegisterFatBinary, fat_cubin_handle = 1, filename=bfs.cu
self exe links to: /home/scratch/adwait/applications/benchmarks/CUDA/BFS2/gpgpu_ptx_sim__BFS2
Running md5sum using "md5sum /home/scratch/adwait/applications/benchmarks/CUDA/BFS2/gpgpu_ptx_sim__BFS2 "
Running cuobjdump using "$CUDA_INSTALL_PATH/bin/cuobjdump -ptx -elf -sass /home/scratch/adwait/applications/benchmarks/CUDA/BFS2/gpgpu_ptx_sim__BFS2 > _cuobjdump_complete_output_jlBarD"
Parsing file _cuobjdump_complete_output_jlBarD
######### cuobjdump parser ########
## Adding new section ELF
Adding arch: sm_20
Adding identifier: bfs.cu
## Adding new section PTX
Adding ptx filename: _cuobjdump_1.ptx
Adding arch: sm_20
Adding identifier: bfs.cu
Done parsing!!!
GPGPU-Sim PTX: __cudaRegisterFunction _Z7Kernel2PbS_S_S_i : hostFun 0x0x4017d8, fat_cubin_handle = 1
GPGPU-Sim PTX: instruction assembly for function '_Z6KernelP4NodePiPbS2_S2_S1_i'...   done.
GPGPU-Sim PTX: finding reconvergence points for '_Z6KernelP4NodePiPbS2_S2_S1_i'...
GPGPU-Sim PTX: Finding dominators for '_Z6KernelP4NodePiPbS2_S2_S1_i'...
GPGPU-Sim PTX: Finding immediate dominators for '_Z6KernelP4NodePiPbS2_S2_S1_i'...
GPGPU-Sim PTX: Finding postdominators for '_Z6KernelP4NodePiPbS2_S2_S1_i'...
GPGPU-Sim PTX: Finding immediate postdominators for '_Z6KernelP4NodePiPbS2_S2_S1_i'...
GPGPU-Sim PTX: pre-decoding instructions for '_Z6KernelP4NodePiPbS2_S2_S1_i'...
GPGPU-Sim PTX: reconvergence points for _Z6KernelP4NodePiPbS2_S2_S1_i...
GPGPU-Sim PTX:  1 (potential) branch divergence @  PC=0x030 (_1.ptx:73) @%p1 bra $Lt_0_5122;
GPGPU-Sim PTX:    immediate post dominator      @  PC=0x1c0 (_1.ptx:135) exit;
GPGPU-Sim PTX:  2 (potential) branch divergence @  PC=0x068 (_1.ptx:80) @%p2 bra $Lt_0_5122;
GPGPU-Sim PTX:    immediate post dominator      @  PC=0x1c0 (_1.ptx:135) exit;
GPGPU-Sim PTX:  3 (potential) branch divergence @  PC=0x0c0 (_1.ptx:93) @%p3 bra $Lt_0_5122;
GPGPU-Sim PTX:    immediate post dominator      @  PC=0x1c0 (_1.ptx:135) exit;
GPGPU-Sim PTX:  4 (potential) branch divergence @  PC=0x120 (_1.ptx:108) @%p4 bra $Lt_0_4354;
GPGPU-Sim PTX:    immediate post dominator      @  PC=0x1a0 (_1.ptx:128) add.s32 %r10, %r10, 1;
GPGPU-Sim PTX:  5 (potential) branch divergence @  PC=0x1b8 (_1.ptx:131) @%p5 bra $Lt_0_4098;
GPGPU-Sim PTX:    immediate post dominator      @  PC=0x1c0 (_1.ptx:135) exit;
GPGPU-Sim PTX: ... end of reconvergence points for _Z6KernelP4NodePiPbS2_S2_S1_i
GPGPU-Sim PTX: ... done pre-decoding instructions for '_Z6KernelP4NodePiPbS2_S2_S1_i'.
GPGPU-Sim PTX: instruction assembly for function '_Z7Kernel2PbS_S_S_i'...   done.
GPGPU-Sim PTX: finding reconvergence points for '_Z7Kernel2PbS_S_S_i'...
GPGPU-Sim PTX: Finding dominators for '_Z7Kernel2PbS_S_S_i'...
GPGPU-Sim PTX: Finding immediate dominators for '_Z7Kernel2PbS_S_S_i'...
GPGPU-Sim PTX: Finding postdominators for '_Z7Kernel2PbS_S_S_i'...
GPGPU-Sim PTX: Finding immediate postdominators for '_Z7Kernel2PbS_S_S_i'...
GPGPU-Sim PTX: pre-decoding instructions for '_Z7Kernel2PbS_S_S_i'...
GPGPU-Sim PTX: reconvergence points for _Z7Kernel2PbS_S_S_i...
GPGPU-Sim PTX:  1 (potential) branch divergence @  PC=0x1f8 (_1.ptx:157) @%p1 bra $Lt_1_1794;
GPGPU-Sim PTX:    immediate post dominator      @  PC=0x2a0 (_1.ptx:185) exit;
GPGPU-Sim PTX:  2 (potential) branch divergence @  PC=0x230 (_1.ptx:164) @%p2 bra $Lt_1_1794;
GPGPU-Sim PTX:    immediate post dominator      @  PC=0x2a0 (_1.ptx:185) exit;
GPGPU-Sim PTX: ... end of reconvergence points for _Z7Kernel2PbS_S_S_i
GPGPU-Sim PTX: ... done pre-decoding instructions for '_Z7Kernel2PbS_S_S_i'.
GPGPU-Sim PTX: finished parsing EMBEDDED .ptx file _1.ptx
Adding _cuobjdump_1.ptx with cubin handle 1
GPGPU-Sim PTX: extracting embedded .ptx to temporary file "_ptx_VNxkpq"
Running: cat _ptx_VNxkpq | sed 's/.version 1.5/.version 1.4/' | sed 's/, texmode_independent//' | sed 's/\(\.extern \.const\[1\] .b8 \w\+\)\[\]/\1\[1\]/' | sed 's/const\[.\]/const\[0\]/g' > _ptx2_XkNpod
GPGPU-Sim PTX: generating ptxinfo using "$CUDA_INSTALL_PATH/bin/ptxas --gpu-name=sm_20 -v _ptx2_XkNpod --output-file  /dev/null 2> _ptx_VNxkpqinfo"
GPGPU-Sim PTX: Kernel '_Z7Kernel2PbS_S_S_i' : regs=12, lmem=0, smem=0, cmem=68
GPGPU-Sim PTX: Kernel '_Z6KernelP4NodePiPbS2_S2_S1_i' : regs=15, lmem=0, smem=0, cmem=84
GPGPU-Sim PTX: removing ptxinfo using "rm -f _ptx_VNxkpq _ptx2_XkNpod _ptx_VNxkpqinfo"
GPGPU-Sim PTX: loading globals with explicit initializers... 
GPGPU-Sim PTX: finished loading globals (0 bytes total).
GPGPU-Sim PTX: loading constants with explicit initializers...  done.
GPGPU-Sim PTX: __cudaRegisterFunction _Z6KernelP4NodePiPbS2_S2_S1_i : hostFun 0x0x40169c, fat_cubin_handle = 1
Input file: ./data/graph32k500kedges_SV.txt
Reading File
Read File
Copied Everything to GPU memory

GPGPU-Sim PTX: cudaLaunch for 0x0x40169c (mode=performance simulation) on stream 0
GPGPU-Sim PTX: pushing kernel '_Z6KernelP4NodePiPbS2_S2_S1_i' to stream 0, gridDim= (63,1,1) blockDim = (512,1,1) 
kernel '_Z6KernelP4NodePiPbS2_S2_S1_i' transfer to GPU hardware scheduler
GPGPU-Sim uArch: Shader 1 bind to kernel 1 '_Z6KernelP4NodePiPbS2_S2_S1_i'
GPGPU-Sim uArch: CTA/core = 3, limited by: threads
GPGPU-Sim uArch: core:  1, cta: 0 initialized @(1,0)
GPGPU-Sim uArch: Shader 2 bind to kernel 1 '_Z6KernelP4NodePiPbS2_S2_S1_i'
GPGPU-Sim uArch: core:  2, cta: 0 initialized @(1,0)
GPGPU-Sim uArch: Shader 3 bind to kernel 1 '_Z6KernelP4NodePiPbS2_S2_S1_i'
GPGPU-Sim uArch: core:  3, cta: 0 initialized @(1,0)
GPGPU-Sim uArch: Shader 4 bind to kernel 1 '_Z6KernelP4NodePiPbS2_S2_S1_i'
GPGPU-Sim uArch: core:  4, cta: 0 initialized @(1,0)
GPGPU-Sim uArch: Shader 5 bind to kernel 1 '_Z6KernelP4NodePiPbS2_S2_S1_i'
GPGPU-Sim uArch: core:  5, cta: 0 initialized @(1,0)
GPGPU-Sim uArch: Shader 6 bind to kernel 1 '_Z6KernelP4NodePiPbS2_S2_S1_i'
GPGPU-Sim uArch: core:  6, cta: 0 initialized @(1,0)
GPGPU-Sim uArch: Shader 7 bind to kernel 1 '_Z6KernelP4NodePiPbS2_S2_S1_i'
GPGPU-Sim uArch: core:  7, cta: 0 initialized @(1,0)
GPGPU-Sim uArch: Shader 8 bind to kernel 1 '_Z6KernelP4NodePiPbS2_S2_S1_i'
GPGPU-Sim uArch: core:  8, cta: 0 initialized @(1,0)
GPGPU-Sim uArch: Shader 9 bind to kernel 1 '_Z6KernelP4NodePiPbS2_S2_S1_i'
GPGPU-Sim uArch: core:  9, cta: 0 initialized @(1,0)
GPGPU-Sim uArch: Shader 10 bind to kernel 1 '_Z6KernelP4NodePiPbS2_S2_S1_i'
GPGPU-Sim uArch: core: 10, cta: 0 initialized @(1,0)
GPGPU-Sim uArch: Shader 11 bind to kernel 1 '_Z6KernelP4NodePiPbS2_S2_S1_i'
GPGPU-Sim uArch: core: 11, cta: 0 initialized @(1,0)
GPGPU-Sim uArch: Shader 12 bind to kernel 1 '_Z6KernelP4NodePiPbS2_S2_S1_i'
GPGPU-Sim uArch: core: 12, cta: 0 initialized @(1,0)
GPGPU-Sim uArch: Shader 13 bind to kernel 1 '_Z6KernelP4NodePiPbS2_S2_S1_i'
GPGPU-Sim uArch: core: 13, cta: 0 initialized @(1,0)
GPGPU-Sim uArch: Shader 14 bind to kernel 1 '_Z6KernelP4NodePiPbS2_S2_S1_i'
GPGPU-Sim uArch: core: 14, cta: 0 initialized @(1,0)
GPGPU-Sim uArch: Shader 0 bind to kernel 1 '_Z6KernelP4NodePiPbS2_S2_S1_i'
GPGPU-Sim uArch: core:  0, cta: 0 initialized @(1,0)
GPGPU-Sim uArch: core:  1, cta: 1 initialized @(2,0)
GPGPU-Sim uArch: core:  2, cta: 1 initialized @(2,0)
GPGPU-Sim uArch: core:  3, cta: 1 initialized @(2,0)
GPGPU-Sim uArch: core:  4, cta: 1 initialized @(2,0)
GPGPU-Sim uArch: core:  5, cta: 1 initialized @(2,0)
GPGPU-Sim uArch: core:  6, cta: 1 initialized @(2,0)
GPGPU-Sim uArch: core:  7, cta: 1 initialized @(2,0)
GPGPU-Sim uArch: core:  8, cta: 1 initialized @(2,0)
GPGPU-Sim uArch: core:  9, cta: 1 initialized @(2,0)
GPGPU-Sim uArch: core: 10, cta: 1 initialized @(2,0)
GPGPU-Sim uArch: core: 11, cta: 1 initialized @(2,0)
GPGPU-Sim uArch: core: 12, cta: 1 initialized @(2,0)
GPGPU-Sim uArch: core: 13, cta: 1 initialized @(2,0)
GPGPU-Sim uArch: core: 14, cta: 1 initialized @(2,0)
GPGPU-Sim uArch: core:  0, cta: 1 initialized @(2,0)
GPGPU-Sim uArch: core:  1, cta: 2 initialized @(3,0)
GPGPU-Sim uArch: core:  2, cta: 2 initialized @(3,0)
GPGPU-Sim uArch: core:  3, cta: 2 initialized @(3,0)
GPGPU-Sim uArch: core:  4, cta: 2 initialized @(3,0)
GPGPU-Sim uArch: core:  5, cta: 2 initialized @(3,0)
GPGPU-Sim uArch: core:  6, cta: 2 initialized @(3,0)
GPGPU-Sim uArch: core:  7, cta: 2 initialized @(3,0)
GPGPU-Sim uArch: core:  8, cta: 2 initialized @(3,0)
GPGPU-Sim uArch: core:  9, cta: 2 initialized @(3,0)
GPGPU-Sim uArch: core: 10, cta: 2 initialized @(3,0)
GPGPU-Sim uArch: core: 11, cta: 2 initialized @(3,0)
GPGPU-Sim uArch: core: 12, cta: 2 initialized @(3,0)
GPGPU-Sim uArch: core: 13, cta: 2 initialized @(3,0)
GPGPU-Sim uArch: core: 14, cta: 2 initialized @(3,0)
GPGPU-Sim uArch: core:  0, cta: 2 initialized @(3,0)
GPGPU-Sim PTX: 100000 instructions simulated : ctaid=(22,0,0) tid=(447,0,0)
GPGPU-Sim uArch: cycles simulated: 500  inst.: 92000 (ipc=184.0) sim_rate=92000 (inst/sec) elapsed = 0:0:00:01 / Tue Apr 16 16:56:31 2019
GPGPU-Sim PTX: 200000 instructions simulated : ctaid=(26,0,0) tid=(415,0,0)
GPGPU-Sim uArch: cycles simulated: 1000  inst.: 240449 (ipc=240.4) sim_rate=120224 (inst/sec) elapsed = 0:0:00:02 / Tue Apr 16 16:56:32 2019
GPGPU-Sim PTX: 300000 instructions simulated : ctaid=(16,0,0) tid=(381,0,0)
GPGPU-Sim uArch: Shader 0 finished CTA #0 (1275,0), 2 CTAs running
GPGPU-Sim uArch: core:  0, cta: 0 initialized @(1276,0)
GPGPU-Sim uArch: Shader 3 finished CTA #0 (1277,0), 2 CTAs running
GPGPU-Sim uArch: core:  3, cta: 0 initialized @(1278,0)
GPGPU-Sim uArch: Shader 3 finished CTA #2 (1285,0), 2 CTAs running
GPGPU-Sim uArch: core:  3, cta: 2 initialized @(1286,0)
GPGPU-Sim uArch: Shader 4 finished CTA #0 (1291,0), 2 CTAs running
GPGPU-Sim uArch: core:  4, cta: 0 initialized @(1292,0)
GPGPU-Sim uArch: Shader 0 finished CTA #1 (1295,0), 2 CTAs running
GPGPU-Sim uArch: Shader 0 finished CTA #2 (1295,0), 1 CTAs running
GPGPU-Sim uArch: core:  0, cta: 1 initialized @(1296,0)
GPGPU-Sim uArch: core:  0, cta: 2 initialized @(1297,0)
GPGPU-Sim uArch: Shader 2 finished CTA #0 (1297,0), 2 CTAs running
GPGPU-Sim uArch: Shader 2 finished CTA #1 (1297,0), 1 CTAs running
GPGPU-Sim uArch: core:  2, cta: 0 initialized @(1298,0)
GPGPU-Sim uArch: core:  2, cta: 1 initialized @(1299,0)
GPGPU-Sim uArch: Shader 3 finished CTA #1 (1301,0), 2 CTAs running
GPGPU-Sim uArch: core:  3, cta: 1 initialized @(1302,0)
GPGPU-Sim uArch: Shader 5 finished CTA #0 (1303,0), 2 CTAs running
GPGPU-Sim uArch: core:  5, cta: 0 initialized @(1304,0)
GPGPU-Sim uArch: Shader 4 finished CTA #1 (1308,0), 2 CTAs running
GPGPU-Sim uArch: Shader 4 finished CTA #2 (1308,0), 1 CTAs running
GPGPU-Sim uArch: core:  4, cta: 1 initialized @(1309,0)
GPGPU-Sim uArch: Shader 1 finished CTA #1 (1309,0), 2 CTAs running
GPGPU-Sim uArch: core:  1, cta: 1 initialized @(1310,0)
GPGPU-Sim uArch: core:  4, cta: 2 initialized @(1310,0)
GPGPU-Sim uArch: Shader 6 finished CTA #0 (1315,0), 2 CTAs running
GPGPU-Sim uArch: core:  6, cta: 0 initialized @(1316,0)
GPGPU-Sim uArch: Shader 5 finished CTA #1 (1320,0), 2 CTAs running
GPGPU-Sim uArch: Shader 5 finished CTA #2 (1320,0), 1 CTAs running
GPGPU-Sim uArch: core:  5, cta: 1 initialized @(1321,0)
GPGPU-Sim uArch: Shader 11 finished CTA #0 (1321,0), 2 CTAs running
GPGPU-Sim uArch: Shader 11 finished CTA #1 (1321,0), 1 CTAs running
GPGPU-Sim uArch: core: 11, cta: 0 initialized @(1322,0)
GPGPU-Sim uArch: core:  5, cta: 2 initialized @(1322,0)
GPGPU-Sim uArch: core: 11, cta: 1 initialized @(1323,0)
GPGPU-Sim uArch: Shader 1 finished CTA #2 (1326,0), 2 CTAs running
GPGPU-Sim uArch: Shader 7 finished CTA #2 (1327,0), 2 CTAs running
GPGPU-Sim uArch: Shader 7 finished CTA #0 (1327,0), 1 CTAs running
GPGPU-Sim uArch: Shader 2 finished CTA #2 (1330,0), 2 CTAs running
GPGPU-Sim uArch: Shader 6 finished CTA #1 (1332,0), 2 CTAs running
GPGPU-Sim uArch: Shader 6 finished CTA #2 (1332,0), 1 CTAs running
GPGPU-Sim uArch: Shader 8 finished CTA #0 (1333,0), 2 CTAs running
GPGPU-Sim uArch: Shader 7 finished CTA #1 (1334,0), 0 CTAs running
GPGPU-Sim uArch: Shader 7 empty (release kernel 1 '_Z6KernelP4NodePiPbS2_S2_S1_i').
GPGPU-Sim uArch: Shader 8 finished CTA #1 (1336,0), 1 CTAs running
GPGPU-Sim uArch: Shader 9 finished CTA #0 (1339,0), 2 CTAs running
GPGPU-Sim uArch: Shader 9 finished CTA #1 (1339,0), 1 CTAs running
GPGPU-Sim uArch: Shader 8 finished CTA #2 (1340,0), 0 CTAs running
GPGPU-Sim uArch: Shader 8 empty (release kernel 1 '_Z6KernelP4NodePiPbS2_S2_S1_i').
GPGPU-Sim uArch: Shader 10 finished CTA #0 (1345,0), 2 CTAs running
GPGPU-Sim uArch: Shader 9 finished CTA #2 (1346,0), 0 CTAs running
GPGPU-Sim uArch: Shader 9 empty (release kernel 1 '_Z6KernelP4NodePiPbS2_S2_S1_i').
GPGPU-Sim uArch: Shader 10 finished CTA #1 (1348,0), 1 CTAs running
GPGPU-Sim uArch: Shader 12 finished CTA #0 (1351,0), 2 CTAs running
GPGPU-Sim uArch: Shader 10 finished CTA #2 (1352,0), 0 CTAs running
GPGPU-Sim uArch: Shader 10 empty (release kernel 1 '_Z6KernelP4NodePiPbS2_S2_S1_i').
GPGPU-Sim uArch: Shader 12 finished CTA #1 (1352,0), 1 CTAs running
GPGPU-Sim uArch: Shader 11 finished CTA #2 (1354,0), 2 CTAs running
GPGPU-Sim uArch: Shader 13 finished CTA #0 (1357,0), 2 CTAs running
GPGPU-Sim uArch: Shader 12 finished CTA #2 (1358,0), 0 CTAs running
GPGPU-Sim uArch: Shader 12 empty (release kernel 1 '_Z6KernelP4NodePiPbS2_S2_S1_i').
GPGPU-Sim uArch: Shader 13 finished CTA #1 (1360,0), 1 CTAs running
GPGPU-Sim uArch: Shader 14 finished CTA #0 (1363,0), 2 CTAs running
GPGPU-Sim uArch: Shader 14 finished CTA #1 (1363,0), 1 CTAs running
GPGPU-Sim uArch: Shader 13 finished CTA #2 (1364,0), 0 CTAs running
GPGPU-Sim uArch: Shader 13 empty (release kernel 1 '_Z6KernelP4NodePiPbS2_S2_S1_i').
GPGPU-Sim uArch: Shader 14 finished CTA #2 (1370,0), 0 CTAs running
GPGPU-Sim uArch: Shader 14 empty (release kernel 1 '_Z6KernelP4NodePiPbS2_S2_S1_i').
GPGPU-Sim PTX: 400000 instructions simulated : ctaid=(55,0,0) tid=(89,0,0)
GPGPU-Sim uArch: Shader 1 finished CTA #1 (1711,0), 1 CTAs running
GPGPU-Sim uArch: Shader 6 finished CTA #0 (1721,0), 0 CTAs running
GPGPU-Sim uArch: Shader 6 empty (release kernel 1 '_Z6KernelP4NodePiPbS2_S2_S1_i').
GPGPU-Sim uArch: Shader 2 finished CTA #0 (1761,0), 1 CTAs running
GPGPU-Sim uArch: Shader 0 finished CTA #0 (1773,0), 2 CTAs running
GPGPU-Sim uArch: Shader 11 finished CTA #0 (1791,0), 1 CTAs running
GPGPU-Sim uArch: Shader 3 finished CTA #0 (1798,0), 2 CTAs running
GPGPU-Sim uArch: Shader 11 finished CTA #1 (1798,0), 0 CTAs running
GPGPU-Sim uArch: Shader 11 empty (release kernel 1 '_Z6KernelP4NodePiPbS2_S2_S1_i').
GPGPU-Sim uArch: Shader 4 finished CTA #0 (1800,0), 2 CTAs running
GPGPU-Sim uArch: Shader 2 finished CTA #1 (1807,0), 0 CTAs running
GPGPU-Sim uArch: Shader 2 empty (release kernel 1 '_Z6KernelP4NodePiPbS2_S2_S1_i').
GPGPU-Sim uArch: Shader 5 finished CTA #0 (1812,0), 2 CTAs running
GPGPU-Sim uArch: Shader 0 finished CTA #1 (1838,0), 1 CTAs running
GPGPU-Sim uArch: Shader 3 finished CTA #2 (1844,0), 1 CTAs running
GPGPU-Sim uArch: Shader 4 finished CTA #1 (1854,0), 1 CTAs running
GPGPU-Sim uArch: Shader 5 finished CTA #1 (1865,0), 1 CTAs running
GPGPU-Sim uArch: Shader 0 finished CTA #2 (1898,0), 0 CTAs running
GPGPU-Sim uArch: Shader 0 empty (release kernel 1 '_Z6KernelP4NodePiPbS2_S2_S1_i').
GPGPU-Sim uArch: Shader 3 finished CTA #1 (1907,0), 0 CTAs running
GPGPU-Sim uArch: Shader 3 empty (release kernel 1 '_Z6KernelP4NodePiPbS2_S2_S1_i').
GPGPU-Sim uArch: Shader 4 finished CTA #2 (1910,0), 0 CTAs running
GPGPU-Sim uArch: Shader 4 empty (release kernel 1 '_Z6KernelP4NodePiPbS2_S2_S1_i').
GPGPU-Sim uArch: Shader 5 finished CTA #2 (1924,0), 0 CTAs running
GPGPU-Sim uArch: Shader 5 empty (release kernel 1 '_Z6KernelP4NodePiPbS2_S2_S1_i').
GPGPU-Sim uArch: cycles simulated: 5500  inst.: 450209 (ipc=81.9) sim_rate=150069 (inst/sec) elapsed = 0:0:00:03 / Tue Apr 16 16:56:33 2019
GPGPU-Sim uArch: Shader 1 finished CTA #0 (8375,0), 0 CTAs running
GPGPU-Sim uArch: Shader 1 empty (release kernel 1 '_Z6KernelP4NodePiPbS2_S2_S1_i').
GPGPU-Sim uArch: GPU detected kernel '_Z6KernelP4NodePiPbS2_S2_S1_i' finished on shader 1.
kernel_name = _Z6KernelP4NodePiPbS2_S2_S1_i 
kernel_launch_uid = 1 
gpu_sim_cycle = 8376
gpu_sim_insn = 450436
gpu_ipc =      53.7770
gpu_tot_sim_cycle = 8376
gpu_tot_sim_insn = 450436
gpu_tot_ipc =      53.7770
gpu_tot_issued_cta = 0
gpu_stall_dramfull = 298
gpu_stall_icnt2sh    = 167
gpu_total_sim_rate=150145

========= Core cache stats =========
L1I_cache:
	L1I_total_cache_accesses = 10218
	L1I_total_cache_misses = 962
	L1I_total_cache_miss_rate = 0.0941
	L1I_total_cache_pending_hits = 0
	L1I_total_cache_reservation_fails = 6744
L1D_cache:
	L1D_cache_core[0]: Access = 96, Miss = 24, Miss_rate = 0.250, Pending_hits = 72, Reservation_fails = 0
	L1D_cache_core[1]: Access = 172, Miss = 63, Miss_rate = 0.366, Pending_hits = 48, Reservation_fails = 0
	L1D_cache_core[2]: Access = 80, Miss = 20, Miss_rate = 0.250, Pending_hits = 60, Reservation_fails = 0
	L1D_cache_core[3]: Access = 96, Miss = 24, Miss_rate = 0.250, Pending_hits = 72, Reservation_fails = 0
	L1D_cache_core[4]: Access = 96, Miss = 24, Miss_rate = 0.250, Pending_hits = 72, Reservation_fails = 0
	L1D_cache_core[5]: Access = 96, Miss = 24, Miss_rate = 0.250, Pending_hits = 72, Reservation_fails = 0
	L1D_cache_core[6]: Access = 64, Miss = 16, Miss_rate = 0.250, Pending_hits = 48, Reservation_fails = 0
	L1D_cache_core[7]: Access = 48, Miss = 12, Miss_rate = 0.250, Pending_hits = 36, Reservation_fails = 0
	L1D_cache_core[8]: Access = 48, Miss = 12, Miss_rate = 0.250, Pending_hits = 36, Reservation_fails = 0
	L1D_cache_core[9]: Access = 48, Miss = 12, Miss_rate = 0.250, Pending_hits = 36, Reservation_fails = 0
	L1D_cache_core[10]: Access = 48, Miss = 12, Miss_rate = 0.250, Pending_hits = 36, Reservation_fails = 0
	L1D_cache_core[11]: Access = 72, Miss = 18, Miss_rate = 0.250, Pending_hits = 54, Reservation_fails = 0
	L1D_cache_core[12]: Access = 48, Miss = 12, Miss_rate = 0.250, Pending_hits = 36, Reservation_fails = 0
	L1D_cache_core[13]: Access = 48, Miss = 12, Miss_rate = 0.250, Pending_hits = 36, Reservation_fails = 0
	L1D_cache_core[14]: Access = 48, Miss = 12, Miss_rate = 0.250, Pending_hits = 36, Reservation_fails = 0
	L1D_total_cache_accesses = 1108
	L1D_total_cache_misses = 297
	L1D_total_cache_miss_rate = 0.2681
	L1D_total_cache_pending_hits = 750
	L1D_total_cache_reservation_fails = 0
	L1D_cache_data_port_util = 0.002
	L1D_cache_fill_port_util = 0.009
L1C_cache:
	L1C_total_cache_accesses = 2041
	L1C_total_cache_misses = 480
	L1C_total_cache_miss_rate = 0.2352
	L1C_total_cache_pending_hits = 0
	L1C_total_cache_reservation_fails = 3411
L1T_cache:
	L1T_total_cache_accesses = 0
	L1T_total_cache_misses = 0
	L1T_total_cache_pending_hits = 0
	L1T_total_cache_reservation_fails = 0

Total_core_cache_stats:
	Total_core_cache_stats_breakdown[GLOBAL_ACC_R][HIT] = 60
	Total_core_cache_stats_breakdown[GLOBAL_ACC_R][HIT_RESERVED] = 750
	Total_core_cache_stats_breakdown[GLOBAL_ACC_R][MISS] = 267
	Total_core_cache_stats_breakdown[CONST_ACC_R][HIT] = 1561
	Total_core_cache_stats_breakdown[CONST_ACC_R][MISS] = 480
	Total_core_cache_stats_breakdown[CONST_ACC_R][RESERVATION_FAIL] = 3411
	Total_core_cache_stats_breakdown[GLOBAL_ACC_W][HIT] = 1
	Total_core_cache_stats_breakdown[GLOBAL_ACC_W][MISS] = 30
	Total_core_cache_stats_breakdown[INST_ACC_R][HIT] = 9256
	Total_core_cache_stats_breakdown[INST_ACC_R][MISS] = 962
	Total_core_cache_stats_breakdown[INST_ACC_R][RESERVATION_FAIL] = 6744
Shader 0 warp_id issue ditsribution:
warp_id:
0, 1, 2, 3, 4, 5, 6, 7, 8, 9, 10, 11, 12, 13, 14, 15, 16, 17, 18, 19, 20, 21, 22, 23, 24, 25, 26, 27, 28, 29, 30, 31, 32, 33, 34, 35, 36, 37, 38, 39, 40, 41, 42, 43, 44, 45, 46, 47, 
distro:
30, 30, 30, 30, 30, 30, 30, 30, 30, 30, 30, 30, 30, 30, 30, 30, 30, 30, 30, 30, 30, 30, 30, 30, 30, 30, 30, 30, 30, 30, 30, 30, 30, 30, 30, 30, 30, 30, 30, 30, 30, 30, 30, 30, 30, 30, 30, 30, 
gpgpu_n_tot_thrd_icount = 495040
gpgpu_n_tot_w_icount = 15470
gpgpu_n_stall_shd_mem = 3411
gpgpu_n_mem_read_local = 0
gpgpu_n_mem_write_local = 0
gpgpu_n_mem_read_global = 267
gpgpu_n_mem_write_global = 31
gpgpu_n_mem_texture = 0
gpgpu_n_mem_const = 15
gpgpu_n_load_insn  = 32077
gpgpu_n_store_insn = 31
gpgpu_n_shmem_insn = 0
gpgpu_n_tex_insn = 0
gpgpu_n_const_mem_insn = 0
gpgpu_n_param_mem_insn = 64289
gpgpu_n_shmem_bkconflict = 0
gpgpu_n_cache_bkconflict = 0
gpgpu_n_intrawarp_mshr_merge = 0
gpgpu_n_cmem_portconflict = 3411
gpgpu_stall_shd_mem[c_mem][bk_conf] = 3411
gpgpu_stall_shd_mem[c_mem][mshr_rc] = 0
gpgpu_stall_shd_mem[c_mem][icnt_rc] = 0
gpgpu_stall_shd_mem[c_mem][data_port_stall] = 0
gpgpu_stall_shd_mem[t_mem][mshr_rc] = 0
gpgpu_stall_shd_mem[t_mem][icnt_rc] = 0
gpgpu_stall_shd_mem[t_mem][data_port_stall] = 0
gpgpu_stall_shd_mem[s_mem][bk_conf] = 0
gpgpu_stall_shd_mem[gl_mem][bk_conf] = 0
gpgpu_stall_shd_mem[gl_mem][coal_stall] = 0
gpgpu_stall_shd_mem[gl_mem][data_port_stall] = 0
gpgpu_stall_shd_mem[g_mem_ld][mshr_rc] = 0
gpgpu_stall_shd_mem[g_mem_ld][icnt_rc] = 0
gpgpu_stall_shd_mem[g_mem_ld][wb_icnt_rc] = 0
gpgpu_stall_shd_mem[g_mem_ld][wb_rsrv_fail] = 0
gpgpu_stall_shd_mem[g_mem_st][mshr_rc] = 0
gpgpu_stall_shd_mem[g_mem_st][icnt_rc] = 0
gpgpu_stall_shd_mem[g_mem_st][wb_icnt_rc] = 0
gpgpu_stall_shd_mem[g_mem_st][wb_rsrv_fail] = 0
gpgpu_stall_shd_mem[l_mem_ld][mshr_rc] = 0
gpgpu_stall_shd_mem[l_mem_ld][icnt_rc] = 0
gpgpu_stall_shd_mem[l_mem_ld][wb_icnt_rc] = 0
gpgpu_stall_shd_mem[l_mem_ld][wb_rsrv_fail] = 0
gpgpu_stall_shd_mem[l_mem_st][mshr_rc] = 0
gpgpu_stall_shd_mem[l_mem_st][icnt_rc] = 0
gpgpu_stall_shd_mem[l_mem_ld][wb_icnt_rc] = 0
gpgpu_stall_shd_mem[l_mem_ld][wb_rsrv_fail] = 0
gpu_reg_bank_conflict_stalls = 0
Warp Occupancy Distribution:
Stall:6887	W0_Idle:22001	W0_Scoreboard:17280	W1:406	W2:0	W3:0	W4:0	W5:0	W6:0	W7:0	W8:0	W9:0	W10:0	W11:0	W12:0	W13:0	W14:0	W15:0	W16:0	W17:0	W18:0	W19:0	W20:0	W21:0	W22:0	W23:0	W24:0	W25:0	W26:0	W27:0	W28:0	W29:0	W30:0	W31:0	W32:15064
traffic_breakdown_coretomem[CONST_ACC_R] = 120 {8:15,}
traffic_breakdown_coretomem[GLOBAL_ACC_R] = 2136 {8:267,}
traffic_breakdown_coretomem[GLOBAL_ACC_W] = 1240 {40:31,}
traffic_breakdown_coretomem[INST_ACC_R] = 256 {8:32,}
traffic_breakdown_memtocore[CONST_ACC_R] = 1080 {72:15,}
traffic_breakdown_memtocore[GLOBAL_ACC_R] = 36312 {136:267,}
traffic_breakdown_memtocore[GLOBAL_ACC_W] = 248 {8:31,}
traffic_breakdown_memtocore[INST_ACC_R] = 4352 {136:32,}
maxmrqlatency = 22 
maxdqlatency = 0 
maxmflatency = 290 
averagemflatency = 264 
max_icnt2mem_latency = 36 
max_icnt2sh_latency = 8375 
mrq_lat_table:235 	12 	50 	26 	7 	0 	0 	0 	0 	0 	0 	0 	0 	0 	0 	0 	0 	0 	0 	0 	0 	0 	0 	0 	0 	0 	0 	0 	0 	0 	0 	0 	
dq_lat_table:0 	0 	0 	0 	0 	0 	0 	0 	0 	0 	0 	0 	0 	0 	0 	0 	0 	0 	0 	0 	0 	0 	0 	0 	0 	0 	0 	0 	0 	0 	0 	0 	
mf_lat_table:0 	0 	0 	0 	0 	0 	0 	36 	277 	0 	0 	0 	0 	0 	0 	0 	0 	0 	0 	0 	0 	0 	0 	0 	0 	0 	0 	0 	0 	0 	0 	0 	
icnt2mem_lat_table:0 	0 	0 	334 	8 	3 	0 	0 	0 	0 	0 	0 	0 	0 	0 	0 	0 	0 	0 	0 	0 	0 	0 	0 	
icnt2sh_lat_table:0 	0 	0 	205 	76 	1 	0 	0 	0 	0 	1 	6 	22 	2 	0 	0 	0 	0 	0 	0 	0 	0 	0 	0 	
mf_lat_pw_table:0 	0 	0 	0 	0 	0 	0 	9 	6 	0 	0 	0 	0 	0 	0 	0 	0 	0 	0 	0 	0 	0 	0 	0 	0 	0 	0 	0 	0 	0 	0 	0 	
maximum concurrent accesses to same row:
dram[0]:         1         0         0         0         0         0         0         0         0         0         0         0         0         0         0         0 
dram[1]:         0         0         0         0         0         0         0         0         0         0         0         0         0         0         0         0 
dram[2]:         0         0         0         0         0         1         0         0         0         0         0         0         0         0         0         0 
dram[3]:         0         0         0         0         0         0         0         0         0         0         0         0         0         0         0         0 
dram[4]:         0         0         0         0         0         0         0         0         0         0         0         0         0         0         0         0 
dram[5]:         0         0         0         0         0         0         0         0         0         0         0         0         0         0         0         0 
maximum service time to same row:
dram[0]:       621         0       949       951      1119      1637      2751      5441         0      7547      8344         0         0         0      1899         0 
dram[1]:      1197         0       915       938      1029      1747      3924         0         0         0      3050         0         0         0         0         0 
dram[2]:         0         0       938       954      1066      1576         0      3521      7154         0         0         0         0         0         0         0 
dram[3]:         0         0       916       935      1668      1691         0      3118         0      6622         0      5835         0         0         0         0 
dram[4]:         0         0       943       963      1678      1701         0      2444      3856         0         0         0         0         0         0         0 
dram[5]:         0         0       925       919      1624      1750         0      7616         0         0      7950      3453         0         0         0         0 
average row accesses per activate:
dram[0]:  1.000000      -nan 14.000000 14.000000  8.000000 11.000000  4.000000  2.000000      -nan  2.000000  2.000000      -nan      -nan      -nan  1.000000      -nan 
dram[1]:  2.000000      -nan 14.000000 14.000000 10.000000  9.000000  4.000000      -nan      -nan      -nan  4.000000      -nan      -nan      -nan      -nan      -nan 
dram[2]:      -nan      -nan 14.000000 14.000000  8.000000  6.000000      -nan  3.000000  2.000000      -nan      -nan      -nan      -nan      -nan      -nan      -nan 
dram[3]:      -nan      -nan 14.000000 16.000000 10.000000  6.000000      -nan  2.000000      -nan  2.000000      -nan  2.000000      -nan      -nan      -nan      -nan 
dram[4]:      -nan      -nan 14.000000 16.000000 11.000000  7.000000      -nan  1.000000  2.000000      -nan      -nan      -nan      -nan      -nan      -nan      -nan 
dram[5]:      -nan      -nan 14.000000 16.000000 10.000000  9.000000      -nan  1.000000      -nan      -nan  2.000000  4.000000      -nan      -nan      -nan      -nan 
average row locality = 330/46 = 7.173913
number of total memory accesses made:
dram[0]:         0         0         0         0         0         0         0         0         0         0         0         0         0         0         0         0 
dram[1]:         0         0         0         0         0         0         0         0         0         0         0         0         0         0         0         0 
dram[2]:         0         0         0         0         0         0         0         0         0         0         0         0         0         0         0         0 
dram[3]:         0         0         0         0         0         0         0         0         0         0         0         0         0         0         0         0 
dram[4]:         0         0         0         0         0         0         0         0         0         0         0         0         0         0         0         0 
dram[5]:         0         0         0         0         0         0         0         0         0         0         0         0         0         0         0         0 
total accesses: 0
min_bank_accesses = 0!
min_chip_accesses = 0!
number of total read accesses:
dram[0]:         3         0        14        14         8         9         3         1         0         1         1         0         0         0         1         0 
dram[1]:         2         0        14        14         9         8         3         0         0         0         2         0         0         0         0         0 
dram[2]:         0         0        14        14         7        10         0         2         1         0         0         0         0         0         0         0 
dram[3]:         0         0        14        16         8         6         0         2         0         1         0         1         0         0         0         0 
dram[4]:         0         0        14        16         9         7         0         1         1         0         0         0         0         0         0         0 
dram[5]:         0         0        14        16         8         8         0         1         0         0         1         2         0         0         0         0 
total reads: 301
min_bank_accesses = 0!
chip skew: 55/48 = 1.15
number of total write accesses:
dram[0]:         0         0         0         0         0         2         1         1         0         1         1         0         0         0         0         0 
dram[1]:         0         0         0         0         1         1         1         0         0         0         2         0         0         0         0         0 
dram[2]:         0         0         0         0         1         2         0         1         1         0         0         0         0         0         0         0 
dram[3]:         0         0         0         0         2         0         0         0         0         1         0         1         0         0         0         0 
dram[4]:         0         0         0         0         2         0         0         0         1         0         0         0         0         0         0         0 
dram[5]:         0         0         0         0         2         1         0         0         0         0         1         2         0         0         0         0 
total reads: 29
min_bank_accesses = 0!
chip skew: 6/3 = 2.00
average mf latency per bank:
dram[0]:       1314    none         263       268       264       211       193       126    none         126       126    none      none      none         268    none  
dram[1]:          0    none         264       269       237       233       193    none      none      none         124    none      none      none      none      none  
dram[2]:     none      none         263       272       228       221    none         171       126    none      none      none      none      none      none      none  
dram[3]:     none      none         263       280       206       274    none         263    none         126    none         126    none      none      none      none  
dram[4]:     none      none         261       268       225       275    none         268       126    none      none      none      none      none      none      none  
dram[5]:     none      none         262       265       207       238    none         268    none      none         126       124    none      none      none      none  
maximum mf latency per bank:
dram[0]:        283         0       271       290       272       268       268       252         0       252       252         0         0         0       268         0
dram[1]:          0         0       281       285       289       275       268         0         0         0       252         0         0         0         0         0
dram[2]:          0         0       277       282       271       283         0       268       252         0         0         0         0         0         0         0
dram[3]:          0         0       272       283       268       280         0       268         0       252         0       252         0         0         0         0
dram[4]:          0         0       271       287       276       282         0       268       252         0         0         0         0         0         0         0
dram[5]:          0         0       269       277       268       286         0       268         0         0       252       252         0         0         0         0

Number of Memory Banks Accessed per Memory Operation per Warp (from 0):
0	0	0	0	0	0	0	0	0	0	0	0	0	0	0	0	0	0	0	0	0	0	0	0	0	0	0	0	0	0	0	0	0	0	0	0	0	0	0	0	0	0	0	0	0	0	0	0	0	0	0	0	0	0	0	0	0	0	0	0	0	0	0	0	0	0	0	0	0	0	0	0	0	0	0	0	0	0	0	0	0	0	0	0	0	0	0	0	0	0	0	0	0	0	0	0	
Average # of Memory Banks Accessed per Memory Operation per Warp=-nan

position of mrq chosen
0	0	0	0	0	0	0	0	0	0	0	0	0	0	0	0	

average position of mrq chosen = -nan
Memory Partition 0: 
Cache L2_bank_000:
MSHR contents

Cache L2_bank_001:
MSHR contents

In Dram Latency Queue (total = 0): 
DRAM[0]: 16 bks, busW=4 BL=8 CL=12, tRRD=2 tCCD=6, tRCD=12 tRAS=28 tRP=12 tRC=40
n_cmd=11056 n_nop=10926 n_act=12 n_pre=2 n_req=61 n_rd=110 n_write=6 bw_util=0.02098
n_activity=849 dram_eff=0.2733
bk0: 6a 10985i bk1: 0a 11055i bk2: 28a 10971i bk3: 28a 10913i bk4: 16a 11008i bk5: 18a 10976i bk6: 6a 11020i bk7: 2a 11032i bk8: 0a 11054i bk9: 2a 11031i bk10: 2a 11031i bk11: 0a 11054i bk12: 0a 11055i bk13: 0a 11055i bk14: 2a 11041i bk15: 0a 11057i 
dram_util_bins: 0 0 0 0 0 0 0 0 0 0
dram_eff_bins: 0 0 0 0 0 0 0 0 0 0
mrqq: max=2 avg=0.00868307
Memory Partition 1: 
Cache L2_bank_002:
MSHR contents

Cache L2_bank_003:
MSHR contents

In Dram Latency Queue (total = 0): 
DRAM[1]: 16 bks, busW=4 BL=8 CL=12, tRRD=2 tCCD=6, tRCD=12 tRAS=28 tRP=12 tRC=40
n_cmd=11056 n_nop=10940 n_act=7 n_pre=0 n_req=57 n_rd=104 n_write=5 bw_util=0.01972
n_activity=651 dram_eff=0.3349
bk0: 4a 11036i bk1: 0a 11057i bk2: 28a 10972i bk3: 28a 10928i bk4: 18a 10964i bk5: 16a 10995i bk6: 6a 11021i bk7: 0a 11056i bk8: 0a 11056i bk9: 0a 11056i bk10: 4a 11018i bk11: 0a 11054i bk12: 0a 11054i bk13: 0a 11055i bk14: 0a 11055i bk15: 0a 11057i 
dram_util_bins: 0 0 0 0 0 0 0 0 0 0
dram_eff_bins: 0 0 0 0 0 0 0 0 0 0
mrqq: max=3 avg=0.0119392
Memory Partition 2: 
Cache L2_bank_004:
MSHR contents

Cache L2_bank_005:
MSHR contents
MSHR: tag=0x80240c00, atomic=0 1 entries : 0x7f3abb9fda40 :  mf: uid= 23551, sid01:w00, part=2, addr=0x80240c20, load , size=32, unknown  status = IN_PARTITION_DRAM (8373), 

In Dram Latency Queue (total = 0): 
DRAM[2]: 16 bks, busW=4 BL=8 CL=12, tRRD=2 tCCD=6, tRCD=12 tRAS=28 tRP=12 tRC=40
n_cmd=11056 n_nop=10947 n_act=7 n_pre=1 n_req=53 n_rd=96 n_write=5 bw_util=0.01827
n_activity=588 dram_eff=0.3435
bk0: 0a 11057i bk1: 0a 11059i bk2: 28a 10977i bk3: 28a 10914i bk4: 14a 10995i bk5: 20a 10944i bk6: 0a 11055i bk7: 4a 11023i bk8: 2a 11030i bk9: 0a 11053i bk10: 0a 11053i bk11: 0a 11053i bk12: 0a 11053i bk13: 0a 11055i bk14: 0a 11056i bk15: 0a 11057i 
dram_util_bins: 0 0 0 0 0 0 0 0 0 0
dram_eff_bins: 0 0 0 0 0 0 0 0 0 0
mrqq: max=2 avg=0.0144718
Memory Partition 3: 
Cache L2_bank_006:
MSHR contents

Cache L2_bank_007:
MSHR contents

In Dram Latency Queue (total = 0): 
DRAM[3]: 16 bks, busW=4 BL=8 CL=12, tRRD=2 tCCD=6, tRCD=12 tRAS=28 tRP=12 tRC=40
n_cmd=11056 n_nop=10949 n_act=7 n_pre=0 n_req=52 n_rd=96 n_write=4 bw_util=0.01809
n_activity=533 dram_eff=0.3752
bk0: 0a 11058i bk1: 0a 11059i bk2: 28a 10968i bk3: 32a 10889i bk4: 16a 10986i bk5: 12a 11005i bk6: 0a 11056i bk7: 4a 11036i bk8: 0a 11055i bk9: 2a 11032i bk10: 0a 11054i bk11: 2a 11032i bk12: 0a 11053i bk13: 0a 11054i bk14: 0a 11054i bk15: 0a 11055i 
dram_util_bins: 0 0 0 0 0 0 0 0 0 0
dram_eff_bins: 0 0 0 0 0 0 0 0 0 0
mrqq: max=2 avg=0.0170948
Memory Partition 4: 
Cache L2_bank_008:
MSHR contents

Cache L2_bank_009:
MSHR contents

In Dram Latency Queue (total = 0): 
DRAM[4]: 16 bks, busW=4 BL=8 CL=12, tRRD=2 tCCD=6, tRCD=12 tRAS=28 tRP=12 tRC=40
n_cmd=11056 n_nop=10951 n_act=6 n_pre=0 n_req=51 n_rd=96 n_write=3 bw_util=0.01791
n_activity=522 dram_eff=0.3793
bk0: 0a 11058i bk1: 0a 11059i bk2: 28a 10981i bk3: 32a 10923i bk4: 18a 10982i bk5: 14a 11003i bk6: 0a 11055i bk7: 2a 11040i bk8: 2a 11032i bk9: 0a 11053i bk10: 0a 11054i bk11: 0a 11055i bk12: 0a 11055i bk13: 0a 11055i bk14: 0a 11055i bk15: 0a 11055i 
dram_util_bins: 0 0 0 0 0 0 0 0 0 0
dram_eff_bins: 0 0 0 0 0 0 0 0 0 0
mrqq: max=3 avg=0.0136577
Memory Partition 5: 
Cache L2_bank_010:
MSHR contents

Cache L2_bank_011:
MSHR contents

In Dram Latency Queue (total = 0): 
DRAM[5]: 16 bks, busW=4 BL=8 CL=12, tRRD=2 tCCD=6, tRCD=12 tRAS=28 tRP=12 tRC=40
n_cmd=11056 n_nop=10943 n_act=7 n_pre=0 n_req=56 n_rd=100 n_write=6 bw_util=0.01918
n_activity=622 dram_eff=0.3408
bk0: 0a 11057i bk1: 0a 11060i bk2: 28a 10978i bk3: 32a 10911i bk4: 16a 10985i bk5: 16a 10993i bk6: 0a 11054i bk7: 2a 11038i bk8: 0a 11053i bk9: 0a 11054i bk10: 2a 11033i bk11: 4a 11018i bk12: 0a 11054i bk13: 0a 11055i bk14: 0a 11056i bk15: 0a 11056i 
dram_util_bins: 0 0 0 0 0 0 0 0 0 0
dram_eff_bins: 0 0 0 0 0 0 0 0 0 0
mrqq: max=2 avg=0.00832127

========= L2 cache stats =========
L2_cache_bank[0]: Access = 58, Miss = 30, Miss_rate = 0.517, Pending_hits = 6, Reservation_fails = 227
L2_cache_bank[1]: Access = 25, Miss = 25, Miss_rate = 1.000, Pending_hits = 0, Reservation_fails = 0
L2_cache_bank[2]: Access = 44, Miss = 30, Miss_rate = 0.682, Pending_hits = 3, Reservation_fails = 114
L2_cache_bank[3]: Access = 22, Miss = 22, Miss_rate = 1.000, Pending_hits = 0, Reservation_fails = 0
L2_cache_bank[4]: Access = 22, Miss = 22, Miss_rate = 1.000, Pending_hits = 0, Reservation_fails = 0
L2_cache_bank[5]: Access = 26, Miss = 26, Miss_rate = 1.000, Pending_hits = 0, Reservation_fails = 0
L2_cache_bank[6]: Access = 22, Miss = 22, Miss_rate = 1.000, Pending_hits = 0, Reservation_fails = 0
L2_cache_bank[7]: Access = 27, Miss = 26, Miss_rate = 0.963, Pending_hits = 0, Reservation_fails = 0
L2_cache_bank[8]: Access = 25, Miss = 24, Miss_rate = 0.960, Pending_hits = 0, Reservation_fails = 0
L2_cache_bank[9]: Access = 24, Miss = 24, Miss_rate = 1.000, Pending_hits = 0, Reservation_fails = 0
L2_cache_bank[10]: Access = 23, Miss = 23, Miss_rate = 1.000, Pending_hits = 0, Reservation_fails = 0
L2_cache_bank[11]: Access = 27, Miss = 27, Miss_rate = 1.000, Pending_hits = 0, Reservation_fails = 0
L2_total_cache_accesses = 345
L2_total_cache_misses = 301
L2_total_cache_miss_rate = 0.8725
L2_total_cache_pending_hits = 9
L2_total_cache_reservation_fails = 341
L2_total_cache_breakdown:
	L2_cache_stats_breakdown[GLOBAL_ACC_R][MISS] = 267
	L2_cache_stats_breakdown[CONST_ACC_R][HIT] = 11
	L2_cache_stats_breakdown[CONST_ACC_R][HIT_RESERVED] = 3
	L2_cache_stats_breakdown[CONST_ACC_R][MISS] = 1
	L2_cache_stats_breakdown[CONST_ACC_R][RESERVATION_FAIL] = 111
	L2_cache_stats_breakdown[GLOBAL_ACC_W][HIT] = 2
	L2_cache_stats_breakdown[GLOBAL_ACC_W][MISS] = 29
	L2_cache_stats_breakdown[INST_ACC_R][HIT] = 22
	L2_cache_stats_breakdown[INST_ACC_R][HIT_RESERVED] = 6
	L2_cache_stats_breakdown[INST_ACC_R][MISS] = 4
	L2_cache_stats_breakdown[INST_ACC_R][RESERVATION_FAIL] = 230
L2_cache_data_port_util = 0.001
L2_cache_fill_port_util = 0.012

icnt_total_pkts_mem_to_simt=1571
icnt_total_pkts_simt_to_mem=376
LD_mem_lat_dist  0 0 0 0 0 0 0 0 0 0 0 0 0 0 0 0 0 0 0 0 0 0 0 0 0 0 0
ST_mem_lat_dist  0 0 0 0 0 0 0 0 0 0 0 0 0 0 0 0 0 0 0 0 0 0 0 0 0 0 0
----------------------------Interconnect-DETAILS--------------------------------
Class 0:
Packet latency average = 9.74928
	minimum = 6
	maximum = 34
Network latency average = 9.22899
	minimum = 6
	maximum = 34
Slowest packet = 14
Flit latency average = 7.80072
	minimum = 6
	maximum = 34
Slowest flit = 14
Fragmentation average = 0
	minimum = 0
	maximum = 0
Injected packet rate average = 0.00305105
	minimum = 0.00179083 (at node 7)
	maximum = 0.00823782 (at node 1)
Accepted packet rate average = 0.00305105
	minimum = 0.00179083 (at node 7)
	maximum = 0.00823782 (at node 1)
Injected flit rate average = 0.00860925
	minimum = 0.00179083 (at node 7)
	maximum = 0.030086 (at node 15)
Accepted flit rate average= 0.00860925
	minimum = 0.00274594 (at node 18)
	maximum = 0.0261461 (at node 1)
Injected packet length average = 2.82174
Accepted packet length average = 2.82174
Total in-flight flits = 0 (0 measured)
====== Overall Traffic Statistics ======
====== Traffic class 0 ======
Packet latency average = 9.74928 (1 samples)
	minimum = 6 (1 samples)
	maximum = 34 (1 samples)
Network latency average = 9.22899 (1 samples)
	minimum = 6 (1 samples)
	maximum = 34 (1 samples)
Flit latency average = 7.80072 (1 samples)
	minimum = 6 (1 samples)
	maximum = 34 (1 samples)
Fragmentation average = 0 (1 samples)
	minimum = 0 (1 samples)
	maximum = 0 (1 samples)
Injected packet rate average = 0.00305105 (1 samples)
	minimum = 0.00179083 (1 samples)
	maximum = 0.00823782 (1 samples)
Accepted packet rate average = 0.00305105 (1 samples)
	minimum = 0.00179083 (1 samples)
	maximum = 0.00823782 (1 samples)
Injected flit rate average = 0.00860925 (1 samples)
	minimum = 0.00179083 (1 samples)
	maximum = 0.030086 (1 samples)
Accepted flit rate average = 0.00860925 (1 samples)
	minimum = 0.00274594 (1 samples)
	maximum = 0.0261461 (1 samples)
Injected packet size average = 2.82174 (1 samples)
Accepted packet size average = 2.82174 (1 samples)
Hops average = 1 (1 samples)
----------------------------END-of-Interconnect-DETAILS-------------------------


gpgpu_simulation_time = 0 days, 0 hrs, 0 min, 3 sec (3 sec)
gpgpu_simulation_rate = 150145 (inst/sec)
gpgpu_simulation_rate = 2792 (cycle/sec)

GPGPU-Sim PTX: cudaLaunch for 0x0x4017d8 (mode=performance simulation) on stream 0
GPGPU-Sim PTX: pushing kernel '_Z7Kernel2PbS_S_S_i' to stream 0, gridDim= (63,1,1) blockDim = (512,1,1) 
kernel '_Z7Kernel2PbS_S_S_i' transfer to GPU hardware scheduler
GPGPU-Sim uArch: Shader 12 bind to kernel 2 '_Z7Kernel2PbS_S_S_i'
GPGPU-Sim uArch: CTA/core = 3, limited by: threads
GPGPU-Sim uArch: core: 12, cta: 0 initialized @(1,8376)
GPGPU-Sim uArch: Shader 13 bind to kernel 2 '_Z7Kernel2PbS_S_S_i'
GPGPU-Sim uArch: core: 13, cta: 0 initialized @(1,8376)
GPGPU-Sim uArch: Shader 14 bind to kernel 2 '_Z7Kernel2PbS_S_S_i'
GPGPU-Sim uArch: core: 14, cta: 0 initialized @(1,8376)
GPGPU-Sim uArch: Shader 0 bind to kernel 2 '_Z7Kernel2PbS_S_S_i'
GPGPU-Sim uArch: core:  0, cta: 0 initialized @(1,8376)
GPGPU-Sim uArch: Shader 1 bind to kernel 2 '_Z7Kernel2PbS_S_S_i'
GPGPU-Sim uArch: core:  1, cta: 0 initialized @(1,8376)
GPGPU-Sim uArch: Shader 2 bind to kernel 2 '_Z7Kernel2PbS_S_S_i'
GPGPU-Sim uArch: core:  2, cta: 0 initialized @(1,8376)
GPGPU-Sim uArch: Shader 3 bind to kernel 2 '_Z7Kernel2PbS_S_S_i'
GPGPU-Sim uArch: core:  3, cta: 0 initialized @(1,8376)
GPGPU-Sim uArch: Shader 4 bind to kernel 2 '_Z7Kernel2PbS_S_S_i'
GPGPU-Sim uArch: core:  4, cta: 0 initialized @(1,8376)
GPGPU-Sim uArch: Shader 5 bind to kernel 2 '_Z7Kernel2PbS_S_S_i'
GPGPU-Sim uArch: core:  5, cta: 0 initialized @(1,8376)
GPGPU-Sim uArch: Shader 6 bind to kernel 2 '_Z7Kernel2PbS_S_S_i'
GPGPU-Sim uArch: core:  6, cta: 0 initialized @(1,8376)
GPGPU-Sim uArch: Shader 7 bind to kernel 2 '_Z7Kernel2PbS_S_S_i'
GPGPU-Sim uArch: core:  7, cta: 0 initialized @(1,8376)
GPGPU-Sim uArch: Shader 8 bind to kernel 2 '_Z7Kernel2PbS_S_S_i'
GPGPU-Sim uArch: core:  8, cta: 0 initialized @(1,8376)
GPGPU-Sim uArch: Shader 9 bind to kernel 2 '_Z7Kernel2PbS_S_S_i'
GPGPU-Sim uArch: core:  9, cta: 0 initialized @(1,8376)
GPGPU-Sim uArch: Shader 10 bind to kernel 2 '_Z7Kernel2PbS_S_S_i'
GPGPU-Sim uArch: core: 10, cta: 0 initialized @(1,8376)
GPGPU-Sim uArch: Shader 11 bind to kernel 2 '_Z7Kernel2PbS_S_S_i'
GPGPU-Sim uArch: core: 11, cta: 0 initialized @(1,8376)
GPGPU-Sim uArch: core: 12, cta: 1 initialized @(2,8376)
GPGPU-Sim uArch: core: 13, cta: 1 initialized @(2,8376)
GPGPU-Sim uArch: core: 14, cta: 1 initialized @(2,8376)
GPGPU-Sim uArch: core:  0, cta: 1 initialized @(2,8376)
GPGPU-Sim uArch: core:  1, cta: 1 initialized @(2,8376)
GPGPU-Sim uArch: core:  2, cta: 1 initialized @(2,8376)
GPGPU-Sim uArch: core:  3, cta: 1 initialized @(2,8376)
GPGPU-Sim uArch: core:  4, cta: 1 initialized @(2,8376)
GPGPU-Sim uArch: core:  5, cta: 1 initialized @(2,8376)
GPGPU-Sim uArch: core:  6, cta: 1 initialized @(2,8376)
GPGPU-Sim uArch: core:  7, cta: 1 initialized @(2,8376)
GPGPU-Sim uArch: core:  8, cta: 1 initialized @(2,8376)
GPGPU-Sim uArch: core:  9, cta: 1 initialized @(2,8376)
GPGPU-Sim uArch: core: 10, cta: 1 initialized @(2,8376)
GPGPU-Sim uArch: core: 11, cta: 1 initialized @(2,8376)
GPGPU-Sim uArch: core: 12, cta: 2 initialized @(3,8376)
GPGPU-Sim uArch: core: 13, cta: 2 initialized @(3,8376)
GPGPU-Sim uArch: core: 14, cta: 2 initialized @(3,8376)
GPGPU-Sim uArch: core:  0, cta: 2 initialized @(3,8376)
GPGPU-Sim uArch: core:  1, cta: 2 initialized @(3,8376)
GPGPU-Sim uArch: core:  2, cta: 2 initialized @(3,8376)
GPGPU-Sim uArch: core:  3, cta: 2 initialized @(3,8376)
GPGPU-Sim uArch: core:  4, cta: 2 initialized @(3,8376)
GPGPU-Sim uArch: core:  5, cta: 2 initialized @(3,8376)
GPGPU-Sim uArch: core:  6, cta: 2 initialized @(3,8376)
GPGPU-Sim uArch: core:  7, cta: 2 initialized @(3,8376)
GPGPU-Sim uArch: core:  8, cta: 2 initialized @(3,8376)
GPGPU-Sim uArch: core:  9, cta: 2 initialized @(3,8376)
GPGPU-Sim uArch: core: 10, cta: 2 initialized @(3,8376)
GPGPU-Sim uArch: core: 11, cta: 2 initialized @(3,8376)
GPGPU-Sim PTX: 500000 instructions simulated : ctaid=(22,0,0) tid=(9,0,0)
GPGPU-Sim PTX: 600000 instructions simulated : ctaid=(9,0,0) tid=(457,0,0)
GPGPU-Sim PTX: 700000 instructions simulated : ctaid=(4,0,0) tid=(457,0,0)
GPGPU-Sim PTX: 800000 instructions simulated : ctaid=(32,0,0) tid=(463,0,0)
GPGPU-Sim uArch: Shader 9 finished CTA #2 (954,8376), 2 CTAs running
GPGPU-Sim uArch: core:  9, cta: 2 initialized @(955,8376)
GPGPU-Sim uArch: Shader 5 finished CTA #2 (960,8376), 2 CTAs running
GPGPU-Sim uArch: core:  5, cta: 2 initialized @(961,8376)
GPGPU-Sim uArch: Shader 1 finished CTA #2 (967,8376), 2 CTAs running
GPGPU-Sim uArch: core:  1, cta: 2 initialized @(968,8376)
GPGPU-Sim uArch: Shader 9 finished CTA #1 (972,8376), 2 CTAs running
GPGPU-Sim uArch: core:  9, cta: 1 initialized @(973,8376)
GPGPU-Sim uArch: Shader 8 finished CTA #1 (976,8376), 2 CTAs running
GPGPU-Sim uArch: core:  8, cta: 1 initialized @(977,8376)
GPGPU-Sim uArch: Shader 5 finished CTA #1 (977,8376), 2 CTAs running
GPGPU-Sim uArch: core:  5, cta: 1 initialized @(978,8376)
GPGPU-Sim uArch: Shader 7 finished CTA #2 (979,8376), 2 CTAs running
GPGPU-Sim uArch: core:  7, cta: 2 initialized @(980,8376)
GPGPU-Sim uArch: Shader 1 finished CTA #1 (984,8376), 2 CTAs running
GPGPU-Sim uArch: core:  1, cta: 1 initialized @(985,8376)
GPGPU-Sim uArch: Shader 13 finished CTA #1 (985,8376), 2 CTAs running
GPGPU-Sim uArch: core: 13, cta: 1 initialized @(986,8376)
GPGPU-Sim uArch: Shader 11 finished CTA #0 (991,8376), 2 CTAs running
GPGPU-Sim uArch: core: 11, cta: 0 initialized @(992,8376)
GPGPU-Sim uArch: Shader 8 finished CTA #2 (993,8376), 2 CTAs running
GPGPU-Sim uArch: core:  8, cta: 2 initialized @(994,8376)
GPGPU-Sim uArch: Shader 7 finished CTA #0 (996,8376), 2 CTAs running
GPGPU-Sim uArch: core:  7, cta: 0 initialized @(997,8376)
GPGPU-Sim uArch: Shader 0 finished CTA #2 (997,8376), 2 CTAs running
GPGPU-Sim uArch: core:  0, cta: 2 initialized @(998,8376)
GPGPU-Sim uArch: cycles simulated: 9376  inst.: 771727 (ipc=321.3) sim_rate=192931 (inst/sec) elapsed = 0:0:00:04 / Tue Apr 16 16:56:34 2019
GPGPU-Sim uArch: Shader 2 finished CTA #0 (1002,8376), 2 CTAs running
GPGPU-Sim uArch: Shader 2 finished CTA #1 (1002,8376), 1 CTAs running
GPGPU-Sim uArch: Shader 13 finished CTA #2 (1002,8376), 2 CTAs running
GPGPU-Sim uArch: core:  2, cta: 0 initialized @(1003,8376)
GPGPU-Sim uArch: core: 13, cta: 2 initialized @(1003,8376)
GPGPU-Sim uArch: core:  2, cta: 1 initialized @(1004,8376)
GPGPU-Sim uArch: Shader 3 finished CTA #0 (1008,8376), 2 CTAs running
GPGPU-Sim uArch: Shader 11 finished CTA #1 (1008,8376), 2 CTAs running
GPGPU-Sim uArch: core:  3, cta: 0 initialized @(1009,8376)
GPGPU-Sim uArch: core: 11, cta: 1 initialized @(1009,8376)
GPGPU-Sim uArch: Shader 0 finished CTA #0 (1014,8376), 2 CTAs running
GPGPU-Sim uArch: Shader 4 finished CTA #0 (1014,8376), 2 CTAs running
GPGPU-Sim uArch: Shader 4 finished CTA #1 (1017,8376), 1 CTAs running
GPGPU-Sim uArch: Shader 6 finished CTA #2 (1020,8376), 2 CTAs running
GPGPU-Sim uArch: Shader 6 finished CTA #0 (1020,8376), 1 CTAs running
GPGPU-Sim uArch: Shader 4 finished CTA #2 (1021,8376), 0 CTAs running
GPGPU-Sim uArch: Shader 4 empty (release kernel 2 '_Z7Kernel2PbS_S_S_i').
GPGPU-Sim uArch: Shader 3 finished CTA #1 (1025,8376), 2 CTAs running
GPGPU-Sim uArch: Shader 3 finished CTA #2 (1025,8376), 1 CTAs running
GPGPU-Sim uArch: Shader 10 finished CTA #0 (1026,8376), 2 CTAs running
GPGPU-Sim uArch: Shader 10 finished CTA #1 (1026,8376), 1 CTAs running
GPGPU-Sim uArch: Shader 6 finished CTA #1 (1027,8376), 0 CTAs running
GPGPU-Sim uArch: Shader 6 empty (release kernel 2 '_Z7Kernel2PbS_S_S_i').
GPGPU-Sim uArch: Shader 12 finished CTA #1 (1028,8376), 2 CTAs running
GPGPU-Sim uArch: Shader 10 finished CTA #2 (1033,8376), 0 CTAs running
GPGPU-Sim uArch: Shader 10 empty (release kernel 2 '_Z7Kernel2PbS_S_S_i').
GPGPU-Sim uArch: Shader 2 finished CTA #2 (1035,8376), 2 CTAs running
GPGPU-Sim uArch: Shader 12 finished CTA #0 (1035,8376), 1 CTAs running
GPGPU-Sim uArch: Shader 12 finished CTA #2 (1039,8376), 0 CTAs running
GPGPU-Sim uArch: Shader 12 empty (release kernel 2 '_Z7Kernel2PbS_S_S_i').
GPGPU-Sim uArch: Shader 14 finished CTA #0 (1045,8376), 2 CTAs running
GPGPU-Sim uArch: Shader 14 finished CTA #1 (1048,8376), 1 CTAs running
GPGPU-Sim uArch: Shader 14 finished CTA #2 (1052,8376), 0 CTAs running
GPGPU-Sim uArch: Shader 14 empty (release kernel 2 '_Z7Kernel2PbS_S_S_i').
GPGPU-Sim PTX: 900000 instructions simulated : ctaid=(50,0,0) tid=(180,0,0)
GPGPU-Sim uArch: Shader 1 finished CTA #0 (1183,8376), 2 CTAs running
GPGPU-Sim uArch: Shader 5 finished CTA #0 (1199,8376), 2 CTAs running
GPGPU-Sim uArch: Shader 7 finished CTA #1 (1201,8376), 2 CTAs running
GPGPU-Sim uArch: Shader 11 finished CTA #2 (1203,8376), 2 CTAs running
GPGPU-Sim uArch: Shader 8 finished CTA #0 (1204,8376), 2 CTAs running
GPGPU-Sim uArch: Shader 13 finished CTA #0 (1207,8376), 2 CTAs running
GPGPU-Sim uArch: Shader 0 finished CTA #1 (1208,8376), 1 CTAs running
GPGPU-Sim uArch: Shader 9 finished CTA #0 (1212,8376), 2 CTAs running
GPGPU-Sim uArch: Shader 1 finished CTA #2 (1404,8376), 1 CTAs running
GPGPU-Sim uArch: Shader 5 finished CTA #2 (1406,8376), 1 CTAs running
GPGPU-Sim uArch: Shader 0 finished CTA #2 (1408,8376), 0 CTAs running
GPGPU-Sim uArch: Shader 0 empty (release kernel 2 '_Z7Kernel2PbS_S_S_i').
GPGPU-Sim uArch: Shader 3 finished CTA #0 (1413,8376), 0 CTAs running
GPGPU-Sim uArch: Shader 3 empty (release kernel 2 '_Z7Kernel2PbS_S_S_i').
GPGPU-Sim uArch: Shader 8 finished CTA #1 (1416,8376), 1 CTAs running
GPGPU-Sim uArch: Shader 13 finished CTA #1 (1422,8376), 1 CTAs running
GPGPU-Sim uArch: Shader 11 finished CTA #0 (1429,8376), 1 CTAs running
GPGPU-Sim uArch: Shader 9 finished CTA #2 (1433,8376), 1 CTAs running
GPGPU-Sim uArch: Shader 2 finished CTA #0 (1453,8376), 1 CTAs running
GPGPU-Sim uArch: Shader 7 finished CTA #2 (1456,8376), 1 CTAs running
GPGPU-Sim uArch: Shader 11 finished CTA #1 (1460,8376), 0 CTAs running
GPGPU-Sim uArch: Shader 11 empty (release kernel 2 '_Z7Kernel2PbS_S_S_i').
GPGPU-Sim uArch: Shader 9 finished CTA #1 (1467,8376), 0 CTAs running
GPGPU-Sim uArch: Shader 9 empty (release kernel 2 '_Z7Kernel2PbS_S_S_i').
GPGPU-Sim uArch: Shader 1 finished CTA #1 (1483,8376), 0 CTAs running
GPGPU-Sim uArch: Shader 1 empty (release kernel 2 '_Z7Kernel2PbS_S_S_i').
GPGPU-Sim uArch: Shader 7 finished CTA #0 (1495,8376), 0 CTAs running
GPGPU-Sim uArch: Shader 7 empty (release kernel 2 '_Z7Kernel2PbS_S_S_i').
GPGPU-Sim uArch: Shader 13 finished CTA #2 (1501,8376), 0 CTAs running
GPGPU-Sim uArch: Shader 13 empty (release kernel 2 '_Z7Kernel2PbS_S_S_i').
GPGPU-Sim uArch: Shader 2 finished CTA #1 (1511,8376), 0 CTAs running
GPGPU-Sim uArch: Shader 2 empty (release kernel 2 '_Z7Kernel2PbS_S_S_i').
GPGPU-Sim uArch: Shader 5 finished CTA #1 (1537,8376), 0 CTAs running
GPGPU-Sim uArch: Shader 5 empty (release kernel 2 '_Z7Kernel2PbS_S_S_i').
GPGPU-Sim uArch: Shader 8 finished CTA #2 (1549,8376), 0 CTAs running
GPGPU-Sim uArch: Shader 8 empty (release kernel 2 '_Z7Kernel2PbS_S_S_i').
GPGPU-Sim uArch: GPU detected kernel '_Z7Kernel2PbS_S_S_i' finished on shader 8.
kernel_name = _Z7Kernel2PbS_S_S_i 
kernel_launch_uid = 2 
gpu_sim_cycle = 1550
gpu_sim_insn = 450228
gpu_ipc =     290.4697
gpu_tot_sim_cycle = 9926
gpu_tot_sim_insn = 900664
gpu_tot_ipc =      90.7379
gpu_tot_issued_cta = 0
gpu_stall_dramfull = 412
gpu_stall_icnt2sh    = 621
gpu_total_sim_rate=225166

========= Core cache stats =========
L1I_cache:
	L1I_total_cache_accesses = 20293
	L1I_total_cache_misses = 1922
	L1I_total_cache_miss_rate = 0.0947
	L1I_total_cache_pending_hits = 0
	L1I_total_cache_reservation_fails = 11368
L1D_cache:
	L1D_cache_core[0]: Access = 164, Miss = 43, Miss_rate = 0.262, Pending_hits = 120, Reservation_fails = 0
	L1D_cache_core[1]: Access = 256, Miss = 85, Miss_rate = 0.332, Pending_hits = 108, Reservation_fails = 0
	L1D_cache_core[2]: Access = 160, Miss = 40, Miss_rate = 0.250, Pending_hits = 120, Reservation_fails = 0
	L1D_cache_core[3]: Access = 160, Miss = 40, Miss_rate = 0.250, Pending_hits = 120, Reservation_fails = 0
	L1D_cache_core[4]: Access = 144, Miss = 36, Miss_rate = 0.250, Pending_hits = 108, Reservation_fails = 0
	L1D_cache_core[5]: Access = 184, Miss = 50, Miss_rate = 0.272, Pending_hits = 132, Reservation_fails = 0
	L1D_cache_core[6]: Access = 112, Miss = 28, Miss_rate = 0.250, Pending_hits = 84, Reservation_fails = 0
	L1D_cache_core[7]: Access = 136, Miss = 38, Miss_rate = 0.279, Pending_hits = 96, Reservation_fails = 0
	L1D_cache_core[8]: Access = 144, Miss = 45, Miss_rate = 0.312, Pending_hits = 96, Reservation_fails = 0
	L1D_cache_core[9]: Access = 140, Miss = 41, Miss_rate = 0.293, Pending_hits = 96, Reservation_fails = 0
	L1D_cache_core[10]: Access = 96, Miss = 24, Miss_rate = 0.250, Pending_hits = 72, Reservation_fails = 0
	L1D_cache_core[11]: Access = 148, Miss = 39, Miss_rate = 0.264, Pending_hits = 108, Reservation_fails = 0
	L1D_cache_core[12]: Access = 96, Miss = 24, Miss_rate = 0.250, Pending_hits = 72, Reservation_fails = 0
	L1D_cache_core[13]: Access = 132, Miss = 35, Miss_rate = 0.265, Pending_hits = 96, Reservation_fails = 0
	L1D_cache_core[14]: Access = 96, Miss = 24, Miss_rate = 0.250, Pending_hits = 72, Reservation_fails = 0
	L1D_total_cache_accesses = 2168
	L1D_total_cache_misses = 592
	L1D_total_cache_miss_rate = 0.2731
	L1D_total_cache_pending_hits = 1500
	L1D_total_cache_reservation_fails = 0
	L1D_cache_data_port_util = 0.001
	L1D_cache_fill_port_util = 0.010
L1C_cache:
	L1C_total_cache_accesses = 4094
	L1C_total_cache_misses = 480
	L1C_total_cache_miss_rate = 0.1172
	L1C_total_cache_pending_hits = 0
	L1C_total_cache_reservation_fails = 3411
L1T_cache:
	L1T_total_cache_accesses = 0
	L1T_total_cache_misses = 0
	L1T_total_cache_pending_hits = 0
	L1T_total_cache_reservation_fails = 0

Total_core_cache_stats:
	Total_core_cache_stats_breakdown[GLOBAL_ACC_R][HIT] = 60
	Total_core_cache_stats_breakdown[GLOBAL_ACC_R][HIT_RESERVED] = 1500
	Total_core_cache_stats_breakdown[GLOBAL_ACC_R][MISS] = 517
	Total_core_cache_stats_breakdown[CONST_ACC_R][HIT] = 3614
	Total_core_cache_stats_breakdown[CONST_ACC_R][MISS] = 480
	Total_core_cache_stats_breakdown[CONST_ACC_R][RESERVATION_FAIL] = 3411
	Total_core_cache_stats_breakdown[GLOBAL_ACC_W][HIT] = 16
	Total_core_cache_stats_breakdown[GLOBAL_ACC_W][MISS] = 75
	Total_core_cache_stats_breakdown[INST_ACC_R][HIT] = 18371
	Total_core_cache_stats_breakdown[INST_ACC_R][MISS] = 1922
	Total_core_cache_stats_breakdown[INST_ACC_R][RESERVATION_FAIL] = 11368
Shader 0 warp_id issue ditsribution:
warp_id:
0, 1, 2, 3, 4, 5, 6, 7, 8, 9, 10, 11, 12, 13, 14, 15, 16, 17, 18, 19, 20, 21, 22, 23, 24, 25, 26, 27, 28, 29, 30, 31, 32, 33, 34, 35, 36, 37, 38, 39, 40, 41, 42, 43, 44, 45, 46, 47, 
distro:
45, 45, 45, 45, 45, 45, 45, 45, 45, 45, 45, 45, 45, 45, 45, 45, 45, 45, 45, 45, 45, 45, 45, 45, 45, 58, 45, 45, 45, 45, 45, 45, 60, 60, 60, 60, 60, 60, 60, 60, 60, 60, 60, 60, 60, 60, 60, 60, 
gpgpu_n_tot_thrd_icount = 983328
gpgpu_n_tot_w_icount = 30729
gpgpu_n_stall_shd_mem = 3411
gpgpu_n_mem_read_local = 0
gpgpu_n_mem_write_local = 0
gpgpu_n_mem_read_global = 517
gpgpu_n_mem_write_global = 91
gpgpu_n_mem_texture = 0
gpgpu_n_mem_const = 15
gpgpu_n_load_insn  = 64077
gpgpu_n_store_insn = 91
gpgpu_n_shmem_insn = 0
gpgpu_n_tex_insn = 0
gpgpu_n_const_mem_insn = 0
gpgpu_n_param_mem_insn = 128590
gpgpu_n_shmem_bkconflict = 0
gpgpu_n_cache_bkconflict = 0
gpgpu_n_intrawarp_mshr_merge = 0
gpgpu_n_cmem_portconflict = 3411
gpgpu_stall_shd_mem[c_mem][bk_conf] = 3411
gpgpu_stall_shd_mem[c_mem][mshr_rc] = 0
gpgpu_stall_shd_mem[c_mem][icnt_rc] = 0
gpgpu_stall_shd_mem[c_mem][data_port_stall] = 0
gpgpu_stall_shd_mem[t_mem][mshr_rc] = 0
gpgpu_stall_shd_mem[t_mem][icnt_rc] = 0
gpgpu_stall_shd_mem[t_mem][data_port_stall] = 0
gpgpu_stall_shd_mem[s_mem][bk_conf] = 0
gpgpu_stall_shd_mem[gl_mem][bk_conf] = 0
gpgpu_stall_shd_mem[gl_mem][coal_stall] = 0
gpgpu_stall_shd_mem[gl_mem][data_port_stall] = 0
gpgpu_stall_shd_mem[g_mem_ld][mshr_rc] = 0
gpgpu_stall_shd_mem[g_mem_ld][icnt_rc] = 0
gpgpu_stall_shd_mem[g_mem_ld][wb_icnt_rc] = 0
gpgpu_stall_shd_mem[g_mem_ld][wb_rsrv_fail] = 0
gpgpu_stall_shd_mem[g_mem_st][mshr_rc] = 0
gpgpu_stall_shd_mem[g_mem_st][icnt_rc] = 0
gpgpu_stall_shd_mem[g_mem_st][wb_icnt_rc] = 0
gpgpu_stall_shd_mem[g_mem_st][wb_rsrv_fail] = 0
gpgpu_stall_shd_mem[l_mem_ld][mshr_rc] = 0
gpgpu_stall_shd_mem[l_mem_ld][icnt_rc] = 0
gpgpu_stall_shd_mem[l_mem_ld][wb_icnt_rc] = 0
gpgpu_stall_shd_mem[l_mem_ld][wb_rsrv_fail] = 0
gpgpu_stall_shd_mem[l_mem_st][mshr_rc] = 0
gpgpu_stall_shd_mem[l_mem_st][icnt_rc] = 0
gpgpu_stall_shd_mem[l_mem_ld][wb_icnt_rc] = 0
gpgpu_stall_shd_mem[l_mem_ld][wb_rsrv_fail] = 0
gpu_reg_bank_conflict_stalls = 0
Warp Occupancy Distribution:
Stall:7383	W0_Idle:32712	W0_Scoreboard:30836	W1:601	W2:0	W3:0	W4:0	W5:0	W6:0	W7:0	W8:0	W9:0	W10:0	W11:0	W12:0	W13:0	W14:0	W15:0	W16:0	W17:0	W18:0	W19:0	W20:0	W21:0	W22:0	W23:0	W24:0	W25:0	W26:0	W27:0	W28:0	W29:0	W30:0	W31:0	W32:30128
traffic_breakdown_coretomem[CONST_ACC_R] = 120 {8:15,}
traffic_breakdown_coretomem[GLOBAL_ACC_R] = 4136 {8:517,}
traffic_breakdown_coretomem[GLOBAL_ACC_W] = 3640 {40:91,}
traffic_breakdown_coretomem[INST_ACC_R] = 496 {8:62,}
traffic_breakdown_memtocore[CONST_ACC_R] = 1080 {72:15,}
traffic_breakdown_memtocore[GLOBAL_ACC_R] = 70312 {136:517,}
traffic_breakdown_memtocore[GLOBAL_ACC_W] = 728 {8:91,}
traffic_breakdown_memtocore[INST_ACC_R] = 8432 {136:62,}
maxmrqlatency = 64 
maxdqlatency = 0 
maxmflatency = 344 
averagemflatency = 259 
max_icnt2mem_latency = 36 
max_icnt2sh_latency = 9925 
mrq_lat_table:356 	33 	81 	50 	24 	28 	1 	0 	0 	0 	0 	0 	0 	0 	0 	0 	0 	0 	0 	0 	0 	0 	0 	0 	0 	0 	0 	0 	0 	0 	0 	0 	
dq_lat_table:0 	0 	0 	0 	0 	0 	0 	0 	0 	0 	0 	0 	0 	0 	0 	0 	0 	0 	0 	0 	0 	0 	0 	0 	0 	0 	0 	0 	0 	0 	0 	0 	
mf_lat_table:0 	0 	0 	0 	0 	0 	0 	107 	516 	0 	0 	0 	0 	0 	0 	0 	0 	0 	0 	0 	0 	0 	0 	0 	0 	0 	0 	0 	0 	0 	0 	0 	
icnt2mem_lat_table:0 	0 	0 	661 	19 	5 	0 	0 	0 	0 	0 	0 	0 	0 	0 	0 	0 	0 	0 	0 	0 	0 	0 	0 	
icnt2sh_lat_table:0 	0 	0 	315 	192 	25 	0 	0 	0 	0 	1 	6 	22 	62 	0 	0 	0 	0 	0 	0 	0 	0 	0 	0 	
mf_lat_pw_table:0 	0 	0 	0 	0 	0 	0 	11 	7 	0 	0 	0 	0 	0 	0 	0 	0 	0 	0 	0 	0 	0 	0 	0 	0 	0 	0 	0 	0 	0 	0 	0 	
maximum concurrent accesses to same row:
dram[0]:         1         0         0         0         0         0         0         0         0         0         0         0         0         0         0         0 
dram[1]:         0         0         0         0         0         0         0         0         0         0         0         0         0         0         0         0 
dram[2]:         0         0         0         0         0         1         0         0         0         0         0         0         0         0         0         0 
dram[3]:         0         0         0         0         0         0         0         0         0         0         0         0         0         0         0         0 
dram[4]:         0         0         0         0         0         0         0         0         0         0         0         0         0         0         0         0 
dram[5]:         0         0         0         0         0         0         0         0         0         0         0         0         0         0         0         0 
maximum service time to same row:
dram[0]:       621         0       949       951      1119      1637      2751      5441         0      7547      8344         0         0         0      1899         0 
dram[1]:      1197         0       915       938      1029      1747      3924         0         0         0      3050         0         0         0         0         0 
dram[2]:       385         0       938       954      1066      1576         0      3521      7154         0         0         0         0      1163         0         0 
dram[3]:         0         0       916       935      1668      1691         0      3118         0      6622         0      5835         0         0         0         0 
dram[4]:         0         0       943       963      1678      1701         0      2444      3856         0         0         0         0         0         0         0 
dram[5]:         0         0       925       919      1624      1750         0      7616         0         0      7950      3453         0         0         0         0 
average row accesses per activate:
dram[0]:  1.000000      -nan 14.000000 14.000000 28.000000 31.000000  4.000000  2.000000      -nan  2.000000  2.000000      -nan      -nan      -nan  1.000000      -nan 
dram[1]:  2.000000      -nan 14.000000 14.000000 29.000000 28.000000  4.000000      -nan      -nan      -nan  4.000000      -nan      -nan      -nan      -nan      -nan 
dram[2]:  2.000000      -nan 14.000000 14.000000 29.000000 15.000000      -nan  3.000000  2.000000      -nan      -nan      -nan      -nan  5.000000      -nan      -nan 
dram[3]:      -nan      -nan 14.000000 16.000000 30.000000 26.000000      -nan  2.000000      -nan  2.000000      -nan  2.000000      -nan      -nan      -nan      -nan 
dram[4]:      -nan      -nan 14.000000 16.000000 31.000000 27.000000      -nan  1.000000  2.000000      -nan      -nan      -nan      -nan      -nan      -nan      -nan 
dram[5]:      -nan      -nan 14.000000 16.000000 30.000000 28.000000      -nan  1.000000      -nan      -nan  2.000000  4.000000      -nan      -nan      -nan      -nan 
average row locality = 573/48 = 11.937500
number of total memory accesses made:
dram[0]:         0         0         0         0         0         0         0         0         0         0         0         0         0         0         0         0 
dram[1]:         0         0         0         0         0         0         0         0         0         0         0         0         0         0         0         0 
dram[2]:         0         0         0         0         0         0         0         0         0         0         0         0         0         0         0         0 
dram[3]:         0         0         0         0         0         0         0         0         0         0         0         0         0         0         0         0 
dram[4]:         0         0         0         0         0         0         0         0         0         0         0         0         0         0         0         0 
dram[5]:         0         0         0         0         0         0         0         0         0         0         0         0         0         0         0         0 
total accesses: 0
min_bank_accesses = 0!
min_chip_accesses = 0!
number of total read accesses:
dram[0]:         3         0        14        14        28        29         3         1         0         1         1         0         0         0         1         0 
dram[1]:         2         0        14        14        28        27         3         0         0         0         2         0         0         0         0         0 
[...]
traffic_breakdown_coretomem[CONST_ACC_R] = 120 {8:15,}
traffic_breakdown_coretomem[GLOBAL_ACC_R] = 4526968 {8:565871,}
traffic_breakdown_coretomem[GLOBAL_ACC_W] = 9426304 {40:235338,72:34,136:76,}
traffic_breakdown_coretomem[INST_ACC_R] = 720 {8:90,}
traffic_breakdown_memtocore[CONST_ACC_R] = 1080 {72:15,}
traffic_breakdown_memtocore[GLOBAL_ACC_R] = 76958456 {136:565871,}
traffic_breakdown_memtocore[GLOBAL_ACC_W] = 1883584 {8:235448,}
traffic_breakdown_memtocore[INST_ACC_R] = 12240 {136:90,}
maxmrqlatency = 308 
maxdqlatency = 0 
maxmflatency = 1240 
averagemflatency = 378 
max_icnt2mem_latency = 825 
max_icnt2sh_latency = 601046 
mrq_lat_table:78872 	3293 	2548 	7576 	17536 	3856 	816 	219 	2 	0 	0 	0 	0 	0 	0 	0 	0 	0 	0 	0 	0 	0 	0 	0 	0 	0 	0 	0 	0 	0 	0 	0 	
dq_lat_table:0 	0 	0 	0 	0 	0 	0 	0 	0 	0 	0 	0 	0 	0 	0 	0 	0 	0 	0 	0 	0 	0 	0 	0 	0 	0 	0 	0 	0 	0 	0 	0 	
mf_lat_table:0 	0 	0 	0 	0 	0 	0 	142169 	535129 	124007 	29 	0 	0 	0 	0 	0 	0 	0 	0 	0 	0 	0 	0 	0 	0 	0 	0 	0 	0 	0 	0 	0 	
icnt2mem_lat_table:0 	0 	0 	161057 	48032 	81283 	206929 	211298 	91782 	1043 	0 	0 	0 	0 	0 	0 	0 	0 	0 	0 	0 	0 	0 	0 	
icnt2sh_lat_table:0 	0 	0 	18827 	289164 	242133 	15258 	504 	0 	0 	1 	6 	22 	465 	10106 	35139 	72595 	35664 	74140 	7310 	0 	0 	0 	0 	
mf_lat_pw_table:0 	0 	0 	0 	0 	0 	0 	198 	1024 	1 	0 	0 	0 	0 	0 	0 	0 	0 	0 	0 	0 	0 	0 	0 	0 	0 	0 	0 	0 	0 	0 	0 	
maximum concurrent accesses to same row:
dram[0]:        15        16        44        41        32        32        30        31        48        27        25        50        11        15        19        14 
dram[1]:        18        15        56        54        31        31        31        32        46        28        32        22        13        24        12        16 
dram[2]:        16        14        40        39        31        29        32        27        44        55        51        29        14        12        12        15 
dram[3]:        16        16        47        53        34        29        25        26        45        54        54        46        15        22        10        10 
dram[4]:        17        16        45        48        33        28        30        29        41        56        54        49        13        12        20        12 
dram[5]:        16        15        53        58        33        28        31        30        46        36        40        42        14        17        16        11 
maximum service time to same row:
dram[0]:     26147     15531     24932     35469     10501     16574     16479     14088     11211     23295     11416     14747     11810     11729     20745     12890 
dram[1]:     52802     19121     60405     11547     35842     11470     12702     19656     18487     11297     16842     18741     10715     11935     31482     14812 
dram[2]:     22145     30165     17885     13656     10607     11171     12018     12497     10339      9927     16454     16828     12367     10414     12028     15979 
dram[3]:     21758     19616     12357     20926      9756     13275     16805     18059     13112     23477     13628     12951      9330     19188     22025     13194 
dram[4]:     27759     15800     29820     18998     27654     10315     26107     14528     11116     10672      6197     21072     17819     10585     10212     15341 
dram[5]:     45493     22335     40951     23553     16677     16703     27965     19650     11782     10946     10163     22773     18469     18347     22164     26510 
average row accesses per activate:
dram[0]:  2.188184  2.011338  2.218543  2.084445  2.116844  2.006557  2.054517  1.935385  2.097477  2.141304  2.118252  2.081855  2.108217  2.115063  2.260388  2.094629 
dram[1]:  2.076419  2.244648  2.338785  2.097674  2.142857  1.958194  2.052459  1.951104  2.110577  2.051656  2.083750  1.976398  2.080160  2.040598  2.412463  2.002611 
dram[2]:  2.006742  2.171429  2.126609  2.193548  2.011551  2.024691  2.019418  1.959361  2.016510  2.099164  2.146540  2.118012  2.021645  2.244292  2.210227  2.263158 
dram[3]:  2.197675  2.217703  2.079812  2.274600  1.993453  2.112084  1.916286  2.067358  2.088889  2.077016  1.980964  2.046135  2.060606  2.147436  2.118784  2.101299 
dram[4]:  2.142857  2.000000  2.079832  2.205184  2.026393  2.012007  1.983333  2.030257  2.091647  2.029740  2.080808  2.169251  2.059701  2.102138  2.257218  2.224747 
dram[5]:  2.235294  2.040201  2.168889  2.097506  2.143095  2.039088  2.025723  1.930233  2.211823  2.074699  2.008506  2.016393  2.086873  2.093182  2.150127  2.187861 
average row locality = 114718/54996 = 2.085933
number of total memory accesses made:
dram[0]:         0         0         0         0         0         0         0         0         0         0         0         0         0         0         0         0 
dram[1]:         0         0         0         0         0         0         0         0         0         0         0         0         0         0         0         0 
dram[2]:         0         0         0         0         0         0         0         0         0         0         0         0         0         0         0         0 
dram[3]:         0         0         0         0         0         0         0         0         0         0         0         0         0         0         0         0 
dram[4]:         0         0         0         0         0         0         0         0         0         0         0         0         0         0         0         0 
dram[5]:         0         0         0         0         0         0         0         0         0         0         0         0         0         0         0         0 
total accesses: 0
min_bank_accesses = 0!
min_chip_accesses = 0!
number of total read accesses:
dram[0]:      1000       887       894       836      1158      1010      1116      1054      1410      1320      1219      1111       992       950       816       819 
dram[1]:       951       734       883       793      1044       968      1058      1062      1361      1194      1266      1203       979       903       813       767 
dram[2]:       893       912       900       928      1001      1104      1046      1166      1282      1358      1168      1275       877       949       778       860 
dram[3]:       756       927       783       867      1017      1025      1089      1016      1282      1320      1185      1202       962       976       767       809 
dram[4]:       960       884       893       914      1112       990      1129      1134      1383      1259      1223      1239      1033       857       860       881 
dram[5]:       950       812       867       795      1052      1059      1055      1060      1365      1333      1249      1201      1020       896       845       757 
total reads: 98118
bank skew: 1410/734 = 1.92
chip skew: 16751/15979 = 1.05
number of total write accesses:
dram[0]:         0         0       111       102       237       214       203       204       419       453       429       415        60        61         0         0 
dram[1]:         0         0       118       109       231       203       194       175       395       355       401       388        59        52         0         0 
dram[2]:         0         0        91        92       218       208       202       184       428       399       414       430        57        34         0         0 
dram[3]:         0         0       103       127       201       181       170       181       410       406       376       439        58        29         0         0 
dram[4]:         0         0        97       107       270       183       180       208       420       379       425       440        71        28         0         0 
dram[5]:         0         0       109       130       236       193       205       185       431       389       404       398        61        25         0         0 
total reads: 16600
min_bank_accesses = 0!
chip skew: 2908/2680 = 1.09
average mf latency per bank:
dram[0]:       1230      1373      1230      1307      4227      4883      5634      5833      1580      1553      1631      1780      1406      1464      1505      1438
dram[1]:       1271      1762      1151      1425      4521      5757      5908      6412      1609      1821      1622      1785      1407      1622      1459      1623
dram[2]:       1398      1473      1288      1346      5103      5338      6320      6114      1739      1722      1751      1700      1574      2623      1604      1481
dram[3]:       1453      1417      1335      1340      4786      5742      5629      6769      1640      1767      1735      1744      1317      1545      1444      1530
dram[4]:       1313      1476      1324      1339      4454      6094      5846      6245      1628      1874      1706      1754      1336      1672      1391      1530
dram[5]:       1379      1521      1328      1344      5124      5412      6468      6190      1719      1699      1880      1794      1491      1532      1498      1545
maximum mf latency per bank:
dram[0]:        895      1031       908      1006       946       939       897      1001       971       935       943       903       938       895       881       898
dram[1]:        892       964       901       888       867      1024       896       952       925       966       933       980       970       960       806      1009
dram[2]:        979       975       877       903       963      1020       990       983       877       965       912       975       953      1033       966       901
dram[3]:        857       954       881      1029       938       985       918      1068      1029      1095       894      1060       896      1053       886      1010
dram[4]:        896      1015       973      1025       923      1023       910      1062      1004      1093       941      1064       955       945       905       923
dram[5]:       1037       949       887      1090      1021      1042       972      1024       950      1240       945      1154       941      1016       889      1052

Number of Memory Banks Accessed per Memory Operation per Warp (from 0):
0	0	0	0	0	0	0	0	0	0	0	0	0	0	0	0	0	0	0	0	0	0	0	0	0	0	0	0	0	0	0	0	0	0	0	0	0	0	0	0	0	0	0	0	0	0	0	0	0	0	0	0	0	0	0	0	0	0	0	0	0	0	0	0	0	0	0	0	0	0	0	0	0	0	0	0	0	0	0	0	0	0	0	0	0	0	0	0	0	0	0	0	0	0	0	0	
Average # of Memory Banks Accessed per Memory Operation per Warp=-nan

position of mrq chosen
0	0	0	0	0	0	0	0	0	0	0	0	0	0	0	0	

average position of mrq chosen = -nan
Memory Partition 0: 
Cache L2_bank_000:
MSHR contents

Cache L2_bank_001:
MSHR contents

In Dram Latency Queue (total = 0): 
DRAM[0]: 16 bks, busW=4 BL=8 CL=12, tRRD=2 tCCD=6, tRCD=12 tRAS=28 tRP=12 tRC=40
n_cmd=805675 n_nop=749730 n_act=9302 n_pre=9286 n_req=19500 n_rd=33184 n_write=4173 bw_util=0.09273
n_activity=325918 dram_eff=0.2292
bk0: 2000a 788351i bk1: 1774a 789366i bk2: 1788a 787622i bk3: 1672a 787954i bk4: 2316a 778294i bk5: 2020a 780689i bk6: 2232a 778650i bk7: 2108a 778454i bk8: 2820a 768608i bk9: 2640a 769419i bk10: 2438a 769558i bk11: 2222a 771674i bk12: 1984a 784064i bk13: 1900a 785258i bk14: 1632a 790438i bk15: 1638a 790270i 
dram_util_bins: 0 0 0 0 0 0 0 0 0 0
dram_eff_bins: 0 0 0 0 0 0 0 0 0 0
mrqq: max=16 avg=0.21815
Memory Partition 1: 
Cache L2_bank_002:
MSHR contents

Cache L2_bank_003:
MSHR contents

In Dram Latency Queue (total = 0): 
DRAM[1]: 16 bks, busW=4 BL=8 CL=12, tRRD=2 tCCD=6, tRCD=12 tRAS=28 tRP=12 tRC=40
n_cmd=805675 n_nop=751991 n_act=8959 n_pre=8943 n_req=18659 n_rd=31958 n_write=3824 bw_util=0.08882
n_activity=320097 dram_eff=0.2236
bk0: 1902a 788669i bk1: 1468a 793332i bk2: 1766a 788842i bk3: 1586a 789254i bk4: 2088a 782132i bk5: 1936a 781275i bk6: 2116a 780266i bk7: 2124a 780073i bk8: 2722a 770384i bk9: 2388a 773319i bk10: 2532a 770852i bk11: 2406a 770809i bk12: 1958a 784441i bk13: 1806a 786178i bk14: 1626a 791715i bk15: 1534a 791216i 
dram_util_bins: 0 0 0 0 0 0 0 0 0 0
dram_eff_bins: 0 0 0 0 0 0 0 0 0 0
mrqq: max=16 avg=0.185632
Memory Partition 2: 
Cache L2_bank_004:
MSHR contents

Cache L2_bank_005:
MSHR contents

In Dram Latency Queue (total = 0): 
DRAM[2]: 16 bks, busW=4 BL=8 CL=12, tRRD=2 tCCD=6, tRCD=12 tRAS=28 tRP=12 tRC=40
n_cmd=805675 n_nop=750284 n_act=9216 n_pre=9200 n_req=19254 n_rd=32994 n_write=3981 bw_util=0.09179
n_activity=324894 dram_eff=0.2276
bk0: 1786a 789100i bk1: 1824a 789592i bk2: 1800a 787776i bk3: 1856a 787188i bk4: 2002a 781170i bk5: 2208a 779079i bk6: 2092a 779803i bk7: 2332a 776550i bk8: 2564a 769840i bk9: 2716a 768950i bk10: 2336a 771392i bk11: 2550a 768358i bk12: 1754a 785871i bk13: 1898a 786425i bk14: 1556a 790731i bk15: 1720a 790064i 
dram_util_bins: 0 0 0 0 0 0 0 0 0 0
dram_eff_bins: 0 0 0 0 0 0 0 0 0 0
mrqq: max=16 avg=0.208899
Memory Partition 3: 
Cache L2_bank_006:
MSHR contents

Cache L2_bank_007:
MSHR contents

In Dram Latency Queue (total = 0): 
DRAM[3]: 16 bks, busW=4 BL=8 CL=12, tRRD=2 tCCD=6, tRCD=12 tRAS=28 tRP=12 tRC=40
n_cmd=805675 n_nop=751891 n_act=8984 n_pre=8968 n_req=18664 n_rd=31966 n_write=3866 bw_util=0.08895
n_activity=319729 dram_eff=0.2241
bk0: 1512a 792570i bk1: 1854a 790014i bk2: 1566a 789471i bk3: 1734a 788272i bk4: 2034a 781564i bk5: 2050a 782389i bk6: 2178a 779629i bk7: 2032a 781409i bk8: 2564a 770741i bk9: 2640a 770024i bk10: 2370a 772095i bk11: 2404a 769837i bk12: 1924a 784979i bk13: 1952a 786355i bk14: 1534a 791114i bk15: 1618a 790558i 
dram_util_bins: 0 0 0 0 0 0 0 0 0 0
dram_eff_bins: 0 0 0 0 0 0 0 0 0 0
mrqq: max=16 avg=0.184542
Memory Partition 4: 
Cache L2_bank_008:
MSHR contents

Cache L2_bank_009:
MSHR contents

In Dram Latency Queue (total = 0): 
DRAM[4]: 16 bks, busW=4 BL=8 CL=12, tRRD=2 tCCD=6, tRCD=12 tRAS=28 tRP=12 tRC=40
n_cmd=805675 n_nop=749395 n_act=9384 n_pre=9368 n_req=19559 n_rd=33502 n_write=4026 bw_util=0.09316
n_activity=326492 dram_eff=0.2299
bk0: 1920a 788235i bk1: 1768a 789022i bk2: 1786a 786976i bk3: 1828a 786974i bk4: 2224a 777214i bk5: 1980a 780953i bk6: 2258a 777739i bk7: 2268a 777115i bk8: 2766a 768602i bk9: 2518a 769985i bk10: 2446a 768661i bk11: 2478a 769326i bk12: 2066a 782339i bk13: 1714a 787660i bk14: 1720a 789739i bk15: 1762a 789586i 
dram_util_bins: 0 0 0 0 0 0 0 0 0 0
dram_eff_bins: 0 0 0 0 0 0 0 0 0 0
mrqq: max=16 avg=0.225452
Memory Partition 5: 
Cache L2_bank_010:
MSHR contents

Cache L2_bank_011:
MSHR contents

In Dram Latency Queue (total = 0): 
DRAM[5]: 16 bks, busW=4 BL=8 CL=12, tRRD=2 tCCD=6, tRCD=12 tRAS=28 tRP=12 tRC=40
n_cmd=805675 n_nop=750787 n_act=9151 n_pre=9135 n_req=19082 n_rd=32632 n_write=3970 bw_util=0.09086
n_activity=325080 dram_eff=0.2252
bk0: 1900a 789739i bk1: 1624a 791113i bk2: 1734a 788412i bk3: 1590a 788816i bk4: 2104a 781109i bk5: 2118a 781021i bk6: 2110a 780196i bk7: 2120a 778906i bk8: 2730a 769918i bk9: 2666a 770102i bk10: 2498a 769802i bk11: 2402a 770315i bk12: 2040a 783637i bk13: 1792a 787512i bk14: 1690a 789913i bk15: 1514a 792230i 
dram_util_bins: 0 0 0 0 0 0 0 0 0 0
dram_eff_bins: 0 0 0 0 0 0 0 0 0 0
mrqq: max=16 avg=0.186737

========= L2 cache stats =========
L2_cache_bank[0]: Access = 65840, Miss = 8605, Miss_rate = 0.131, Pending_hits = 71, Reservation_fails = 548
L2_cache_bank[1]: Access = 66028, Miss = 7987, Miss_rate = 0.121, Pending_hits = 52, Reservation_fails = 540
L2_cache_bank[2]: Access = 65935, Miss = 8355, Miss_rate = 0.127, Pending_hits = 76, Reservation_fails = 115
L2_cache_bank[3]: Access = 66349, Miss = 7624, Miss_rate = 0.115, Pending_hits = 66, Reservation_fails = 0
L2_cache_bank[4]: Access = 66589, Miss = 7945, Miss_rate = 0.119, Pending_hits = 53, Reservation_fails = 344
L2_cache_bank[5]: Access = 70060, Miss = 8552, Miss_rate = 0.122, Pending_hits = 59, Reservation_fails = 890
L2_cache_bank[6]: Access = 65405, Miss = 7841, Miss_rate = 0.120, Pending_hits = 58, Reservation_fails = 1
L2_cache_bank[7]: Access = 67160, Miss = 8142, Miss_rate = 0.121, Pending_hits = 79, Reservation_fails = 3
L2_cache_bank[8]: Access = 66024, Miss = 8593, Miss_rate = 0.130, Pending_hits = 66, Reservation_fails = 297
L2_cache_bank[9]: Access = 67480, Miss = 8158, Miss_rate = 0.121, Pending_hits = 57, Reservation_fails = 615
L2_cache_bank[10]: Access = 67378, Miss = 8403, Miss_rate = 0.125, Pending_hits = 74, Reservation_fails = 0
L2_cache_bank[11]: Access = 67176, Miss = 7913, Miss_rate = 0.118, Pending_hits = 76, Reservation_fails = 1
L2_total_cache_accesses = 801424
L2_total_cache_misses = 98118
L2_total_cache_miss_rate = 0.1224
L2_total_cache_pending_hits = 787
L2_total_cache_reservation_fails = 3354
L2_total_cache_breakdown:
	L2_cache_stats_breakdown[GLOBAL_ACC_R][HIT] = 476352
	L2_cache_stats_breakdown[GLOBAL_ACC_R][HIT_RESERVED] = 48
	L2_cache_stats_breakdown[GLOBAL_ACC_R][MISS] = 89471
	L2_cache_stats_breakdown[GLOBAL_ACC_R][RESERVATION_FAIL] = 2597
	L2_cache_stats_breakdown[CONST_ACC_R][HIT] = 11
	L2_cache_stats_breakdown[CONST_ACC_R][HIT_RESERVED] = 3
	L2_cache_stats_breakdown[CONST_ACC_R][MISS] = 1
	L2_cache_stats_breakdown[CONST_ACC_R][RESERVATION_FAIL] = 111
	L2_cache_stats_breakdown[GLOBAL_ACC_W][HIT] = 226084
	L2_cache_stats_breakdown[GLOBAL_ACC_W][HIT_RESERVED] = 724
	L2_cache_stats_breakdown[GLOBAL_ACC_W][MISS] = 8640
	L2_cache_stats_breakdown[GLOBAL_ACC_W][RESERVATION_FAIL] = 237
	L2_cache_stats_breakdown[INST_ACC_R][HIT] = 72
	L2_cache_stats_breakdown[INST_ACC_R][HIT_RESERVED] = 12
	L2_cache_stats_breakdown[INST_ACC_R][MISS] = 6
	L2_cache_stats_breakdown[INST_ACC_R][RESERVATION_FAIL] = 409
L2_cache_data_port_util = 0.295
L2_cache_fill_port_util = 0.054

icnt_total_pkts_mem_to_simt=3065298
icnt_total_pkts_simt_to_mem=1037134
LD_mem_lat_dist  0 0 0 0 0 0 0 0 0 0 0 0 0 0 0 0 0 0 0 0 0 0 0 0 0 0 0
ST_mem_lat_dist  0 0 0 0 0 0 0 0 0 0 0 0 0 0 0 0 0 0 0 0 0 0 0 0 0 0 0
----------------------------Interconnect-DETAILS--------------------------------
Class 0:
Packet latency average = 10.3
	minimum = 6
	maximum = 37
Network latency average = 9.68
	minimum = 6
	maximum = 29
Slowest packet = 1602604
Flit latency average = 8.344
	minimum = 6
	maximum = 25
Slowest flit = 4101522
Fragmentation average = 0
	minimum = 0
	maximum = 0
Injected packet rate average = 0.0171786
	minimum = 0.0111317 (at node 3)
	maximum = 0.0204082 (at node 16)
Accepted packet rate average = 0.0171786
	minimum = 0.0111317 (at node 3)
	maximum = 0.0204082 (at node 16)
Injected flit rate average = 0.0515358
	minimum = 0.0111317 (at node 3)
	maximum = 0.102041 (at node 16)
Accepted flit rate average= 0.0515358
	minimum = 0.0185529 (at node 15)
	maximum = 0.0927644 (at node 2)
Injected packet length average = 3
Accepted packet length average = 3
Total in-flight flits = 0 (0 measured)
====== Overall Traffic Statistics ======
====== Traffic class 0 ======
Packet latency average = 32.0232 (12 samples)
	minimum = 6 (12 samples)
	maximum = 249.333 (12 samples)
Network latency average = 20.715 (12 samples)
	minimum = 6 (12 samples)
	maximum = 199.417 (12 samples)
Flit latency average = 19.3918 (12 samples)
	minimum = 6 (12 samples)
	maximum = 198.083 (12 samples)
Fragmentation average = 0.0162904 (12 samples)
	minimum = 0 (12 samples)
	maximum = 76.0833 (12 samples)
Injected packet rate average = 0.0583895 (12 samples)
	minimum = 0.0416067 (12 samples)
	maximum = 0.133141 (12 samples)
Accepted packet rate average = 0.0583895 (12 samples)
	minimum = 0.0416067 (12 samples)
	maximum = 0.133141 (12 samples)
Injected flit rate average = 0.124793 (12 samples)
	minimum = 0.0623293 (12 samples)
	maximum = 0.255612 (12 samples)
Accepted flit rate average = 0.124793 (12 samples)
	minimum = 0.070422 (12 samples)
	maximum = 0.313637 (12 samples)
Injected packet size average = 2.13726 (12 samples)
Accepted packet size average = 2.13726 (12 samples)
Hops average = 1 (12 samples)
----------------------------END-of-Interconnect-DETAILS-------------------------


gpgpu_simulation_time = 0 days, 0 hrs, 6 min, 48 sec (408 sec)
gpgpu_simulation_rate = 32773 (inst/sec)
gpgpu_simulation_rate = 1495 (cycle/sec)
Kernel Executed 6 times
Result stored in result.txt
