

        *** GPGPU-Sim Simulator Version 3.2.2  [build 0] ***


GPGPU-Sim PTX: simulation mode 0 (can change with PTX_SIM_MODE_FUNC environment variable:
               1=functional simulation only, 0=detailed performance simulator)
GPGPU-Sim: Configuration options:

-network_mode                           1 # Interconnection network mode
-inter_config_file   config_fermi_islip.icnt # Interconnection network config file
-gpgpu_ptx_use_cuobjdump                    1 # Use cuobjdump to extract ptx and sass from binaries
-gpgpu_experimental_lib_support                    0 # Try to extract code from cuda libraries [Broken because of unknown cudaGetExportTable]
-gpgpu_ptx_convert_to_ptxplus                    0 # Convert SASS (native ISA) to ptxplus and run ptxplus
-gpgpu_ptx_force_max_capability                   20 # Force maximum compute capability
-gpgpu_ptx_inst_debug_to_file                    0 # Dump executed instructions' debug information to file
-gpgpu_ptx_inst_debug_file       inst_debug.txt # Executed instructions' debug output file
-gpgpu_ptx_inst_debug_thread_uid                    1 # Thread UID for executed instructions' debug output
-gpgpu_simd_model                       1 # 1 = post-dominator
-gpgpu_shader_core_pipeline              1536:32 # shader core pipeline config, i.e., {<nthread>:<warpsize>}
-gpgpu_tex_cache:l1  4:128:24,L:R:m:N:L,F:128:4,128:2 # per-shader L1 texture cache  (READ-ONLY) config  {<nsets>:<bsize>:<assoc>,<rep>:<wr>:<alloc>:<wr_alloc>,<mshr>:<N>:<merge>,<mq>:<rf>}
-gpgpu_const_cache:l1 64:64:2,L:R:f:N:L,A:2:32,4 # per-shader L1 constant memory cache  (READ-ONLY) config  {<nsets>:<bsize>:<assoc>,<rep>:<wr>:<alloc>:<wr_alloc>,<mshr>:<N>:<merge>,<mq>} 
-gpgpu_cache:il1     4:128:4,L:R:f:N:L,A:2:32,4 # shader L1 instruction cache config  {<nsets>:<bsize>:<assoc>,<rep>:<wr>:<alloc>:<wr_alloc>,<mshr>:<N>:<merge>,<mq>} 
-gpgpu_cache:dl1     32:128:1,L:L:m:N:H,A:32:8,8 # per-shader L1 data cache config  {<nsets>:<bsize>:<assoc>,<rep>:<wr>:<alloc>:<wr_alloc>,<mshr>:<N>:<merge>,<mq> | none}
-gpgpu_cache:dl1PrefL1                 none # per-shader L1 data cache config  {<nsets>:<bsize>:<assoc>,<rep>:<wr>:<alloc>:<wr_alloc>,<mshr>:<N>:<merge>,<mq> | none}
-gpgpu_cache:dl1PreShared                 none # per-shader L1 data cache config  {<nsets>:<bsize>:<assoc>,<rep>:<wr>:<alloc>:<wr_alloc>,<mshr>:<N>:<merge>,<mq> | none}
-gmem_skip_L1D                          0 # global memory access skip L1D cache (implements -Xptxas -dlcm=cg, default=no skip)
-gpgpu_perfect_mem                      0 # enable perfect memory mode (no cache miss)
-n_regfile_gating_group                    4 # group of lanes that should be read/written together)
-gpgpu_clock_gated_reg_file                    0 # enable clock gated reg file for power calculations
-gpgpu_clock_gated_lanes                    0 # enable clock gated lanes for power calculations
-gpgpu_shader_registers                32768 # Number of registers per shader core. Limits number of concurrent CTAs. (default 8192)
-gpgpu_shader_cta                       8 # Maximum number of concurrent CTAs in shader (default 8)
-gpgpu_num_cta_barriers                   16 # Maximum number of named barriers per CTA (default 16)
-gpgpu_n_clusters                      15 # number of processing clusters
-gpgpu_n_cores_per_cluster                    1 # number of simd cores per cluster
-gpgpu_n_cluster_ejection_buffer_size                    8 # number of packets in ejection buffer
-gpgpu_n_ldst_response_buffer_size                    2 # number of response packets in ld/st unit ejection buffer
-gpgpu_shmem_size                   16384 # Size of shared memory per shader core (default 16kB)
-gpgpu_shmem_size                   49152 # Size of shared memory per shader core (default 16kB)
-gpgpu_shmem_size_PrefL1                16384 # Size of shared memory per shader core (default 16kB)
-gpgpu_shmem_size_PrefShared                16384 # Size of shared memory per shader core (default 16kB)
-gpgpu_shmem_num_banks                   32 # Number of banks in the shared memory in each shader core (default 16)
-gpgpu_shmem_limited_broadcast                    0 # Limit shared memory to do one broadcast per cycle (default on)
-gpgpu_shmem_warp_parts                    1 # Number of portions a warp is divided into for shared memory bank conflict check 
-gpgpu_warpdistro_shader                   -1 # Specify which shader core to collect the warp size distribution from
-gpgpu_warp_issue_shader                    0 # Specify which shader core to collect the warp issue distribution from
-gpgpu_local_mem_map                    1 # Mapping from local memory space address to simulated GPU physical address space (default = enabled)
-gpgpu_num_reg_banks                   16 # Number of register banks (default = 8)
-gpgpu_reg_bank_use_warp_id                    0 # Use warp ID in mapping registers to banks (default = off)
-gpgpu_operand_collector_num_units_sp                    6 # number of collector units (default = 4)
-gpgpu_operand_collector_num_units_sfu                    8 # number of collector units (default = 4)
-gpgpu_operand_collector_num_units_mem                    2 # number of collector units (default = 2)
-gpgpu_operand_collector_num_units_gen                    0 # number of collector units (default = 0)
-gpgpu_operand_collector_num_in_ports_sp                    2 # number of collector unit in ports (default = 1)
-gpgpu_operand_collector_num_in_ports_sfu                    1 # number of collector unit in ports (default = 1)
-gpgpu_operand_collector_num_in_ports_mem                    1 # number of collector unit in ports (default = 1)
-gpgpu_operand_collector_num_in_ports_gen                    0 # number of collector unit in ports (default = 0)
-gpgpu_operand_collector_num_out_ports_sp                    2 # number of collector unit in ports (default = 1)
-gpgpu_operand_collector_num_out_ports_sfu                    1 # number of collector unit in ports (default = 1)
-gpgpu_operand_collector_num_out_ports_mem                    1 # number of collector unit in ports (default = 1)
-gpgpu_operand_collector_num_out_ports_gen                    0 # number of collector unit in ports (default = 0)
-gpgpu_coalesce_arch                   13 # Coalescing arch (default = 13, anything else is off for now)
-gpgpu_num_sched_per_core                    2 # Number of warp schedulers per core
-gpgpu_max_insn_issue_per_warp                    1 # Max number of instructions that can be issued per warp in one cycle by scheduler
-gpgpu_simt_core_sim_order                    1 # Select the simulation order of cores in a cluster (0=Fix, 1=Round-Robin)
-gpgpu_pipeline_widths        2,1,1,2,1,1,2 # Pipeline widths ID_OC_SP,ID_OC_SFU,ID_OC_MEM,OC_EX_SP,OC_EX_SFU,OC_EX_MEM,EX_WB
-gpgpu_num_sp_units                     2 # Number of SP units (default=1)
-gpgpu_num_sfu_units                    1 # Number of SF units (default=1)
-gpgpu_num_mem_units                    1 # Number if ldst units (default=1) WARNING: not hooked up to anything
-gpgpu_scheduler                      gto # Scheduler configuration: < lrr | gto | two_level_active > If two_level_active:<num_active_warps>:<inner_prioritization>:<outer_prioritization>For complete list of prioritization values see shader.h enum scheduler_prioritization_typeDefault: gto
-gpgpu_dram_scheduler                    1 # 0 = fifo, 1 = FR-FCFS (defaul)
-gpgpu_dram_partition_queues              8:8:8:8 # i2$:$2d:d2$:$2i
-l2_ideal                               0 # Use a ideal L2 cache that always hit
-gpgpu_cache:dl2     64:128:8,L:B:m:W:L,A:32:4,4:0,32 # unified banked L2 data cache config  {<nsets>:<bsize>:<assoc>,<rep>:<wr>:<alloc>:<wr_alloc>,<mshr>:<N>:<merge>,<mq>}
-gpgpu_cache:dl2_texture_only                    0 # L2 cache used for texture only
-gpgpu_n_mem                            6 # number of memory modules (e.g. memory controllers) in gpu
-gpgpu_n_sub_partition_per_mchannel                    2 # number of memory subpartition in each memory module
-gpgpu_n_mem_per_ctrlr                    2 # number of memory chips per memory controller
-gpgpu_memlatency_stat                   14 # track and display latency statistics 0x2 enables MC, 0x4 enables queue logs
-gpgpu_frfcfs_dram_sched_queue_size                   16 # 0 = unlimited (default); # entries per chip
-gpgpu_dram_return_queue_size                  116 # 0 = unlimited (default); # entries per chip
-gpgpu_dram_buswidth                    4 # default = 4 bytes (8 bytes per cycle at DDR)
-gpgpu_dram_burst_length                    8 # Burst length of each DRAM request (default = 4 data bus cycle)
-dram_data_command_freq_ratio                    4 # Frequency ratio between DRAM data bus and command bus (default = 2 times, i.e. DDR)
-gpgpu_dram_timing_opt nbk=16:CCD=2:RRD=6:RCD=12:RAS=28:RP=12:RC=40: CL=12:WL=4:CDLR=5:WR=12:nbkgrp=4:CCDL=3:RTPL=2 # DRAM timing parameters = {nbk:tCCD:tRRD:tRCD:tRAS:tRP:tRC:CL:WL:tCDLR:tWR:nbkgrp:tCCDL:tRTPL}
-rop_latency                          120 # ROP queue latency (default 85)
-dram_latency                         100 # DRAM latency (default 30)
-gpgpu_mem_addr_mapping dramid@8;00000000.00000000.00000000.00000000.0000RRRR.RRRRRRRR.BBBCCCCB.CCSSSSSS # mapping memory address to dram model {dramid@<start bit>;<memory address map>}
-gpgpu_mem_addr_test                    0 # run sweep test to check address mapping for aliased address
-gpgpu_mem_address_mask                    1 # 0 = old addressing mask, 1 = new addressing mask, 2 = new add. mask + flipped bank sel and chip sel bits
-gpuwattch_xml_file  gpuwattch_gtx480.xml # GPUWattch XML file
-power_simulation_enabled                    1 # Turn on power simulator (1=On, 0=Off)
-power_per_cycle_dump                    0 # Dump detailed power output each cycle
-power_trace_enabled                    0 # produce a file for the power trace (1=On, 0=Off)
-power_trace_zlevel                     6 # Compression level of the power trace output log (0=no comp, 9=highest)
-steady_power_levels_enabled                    0 # produce a file for the steady power levels (1=On, 0=Off)
-steady_state_definition                  8:4 # allowed deviation:number of samples
-gpgpu_max_cycle                        0 # terminates gpu simulation early (0 = no limit)
-gpgpu_max_insn                         0 # terminates gpu simulation early (0 = no limit)
-gpgpu_max_cta                          0 # terminates gpu simulation early (0 = no limit)
-gpgpu_runtime_stat                   500 # display runtime statistics such as dram utilization {<freq>:<flag>}
-liveness_message_freq                    1 # Minimum number of seconds between simulation liveness messages (0 = always print)
-gpgpu_flush_l1_cache                    0 # Flush L1 cache at the end of each kernel call
-gpgpu_flush_l2_cache                    0 # Flush L2 cache at the end of each kernel call
-gpgpu_deadlock_detect                    1 # Stop the simulation at deadlock (1=on (default), 0=off)
-gpgpu_ptx_instruction_classification                    0 # if enabled will classify ptx instruction types per kernel (Max 255 kernels now)
-gpgpu_ptx_sim_mode                     0 # Select between Performance (default) or Functional simulation (1)
-gpgpu_clock_domains 700.0:700.0:700.0:924.0 # Clock Domain Frequencies in MhZ {<Core Clock>:<ICNT Clock>:<L2 Clock>:<DRAM Clock>}
-gpgpu_max_concurrent_kernel                    8 # maximum kernels that can run concurrently on GPU
-gpgpu_cflog_interval                    0 # Interval between each snapshot in control flow logger
-visualizer_enabled                     0 # Turn on visualizer output (1=On, 0=Off)
-visualizer_outputfile                 NULL # Specifies the output log file for visualizer
-visualizer_zlevel                      6 # Compression level of the visualizer output log (0=no comp, 9=highest)
-trace_enabled                          0 # Turn on traces
-trace_components                    none # comma seperated list of traces to enable. Complete list found in trace_streams.tup. Default none
-trace_sampling_core                    0 # The core which is printed using CORE_DPRINTF. Default 0
-trace_sampling_memory_partition                   -1 # The memory partition which is printed using MEMPART_DPRINTF. Default -1 (i.e. all)
-enable_ptx_file_line_stats                    1 # Turn on PTX source line statistic profiling. (1 = On)
-ptx_line_stats_filename gpgpu_inst_stats.txt # Output file for PTX source line statistics.
-save_embedded_ptx                      0 # saves ptx files embedded in binary as <n>.ptx
-keep                                   0 # keep intermediate files created by GPGPU-Sim when interfacing with external programs
-gpgpu_ptx_save_converted_ptxplus                    0 # Saved converted ptxplus to a file
-ptx_opcode_latency_int         4,13,4,5,145 # Opcode latencies for integers <ADD,MAX,MUL,MAD,DIV>Default 1,1,19,25,145
-ptx_opcode_latency_fp          4,13,4,5,39 # Opcode latencies for single precision floating points <ADD,MAX,MUL,MAD,DIV>Default 1,1,1,1,30
-ptx_opcode_latency_dp         8,19,8,8,330 # Opcode latencies for double precision floating points <ADD,MAX,MUL,MAD,DIV>Default 8,8,8,8,335
-ptx_opcode_initiation_int            1,2,2,1,8 # Opcode initiation intervals for integers <ADD,MAX,MUL,MAD,DIV>Default 1,1,4,4,32
-ptx_opcode_initiation_fp            1,2,1,1,4 # Opcode initiation intervals for single precision floating points <ADD,MAX,MUL,MAD,DIV>Default 1,1,1,1,5
-ptx_opcode_initiation_dp         8,16,8,8,130 # Opcode initiation intervals for double precision floating points <ADD,MAX,MUL,MAD,DIV>Default 8,8,8,8,130
DRAM Timing Options:
nbk                                    16 # number of banks
CCD                                     2 # column to column delay
RRD                                     6 # minimal delay between activation of rows in different banks
RCD                                    12 # row to column delay
RAS                                    28 # time needed to activate row
RP                                     12 # time needed to precharge (deactivate) row
RC                                     40 # row cycle time
CDLR                                    5 # switching from write to read (changes tWTR)
WR                                     12 # last data-in to row precharge
CL                                     12 # CAS latency
WL                                      4 # Write latency
nbkgrp                                  4 # number of bank groups
CCDL                                    3 # column to column delay between accesses to different bank groups
RTPL                                    2 # read to precharge delay between accesses to different bank groups
Total number of memory sub partition = 12
addr_dec_mask[CHIP]  = 0000000000000000 	high:64 low:0
addr_dec_mask[BK]    = 000000000000e100 	high:16 low:8
addr_dec_mask[ROW]   = 000000000fff0000 	high:28 low:16
addr_dec_mask[COL]   = 0000000000001eff 	high:13 low:0
addr_dec_mask[BURST] = 000000000000003f 	high:6 low:0
sub_partition_id_mask = 0000000000000100
GPGPU-Sim uArch: clock freqs: 700000000.000000:700000000.000000:700000000.000000:924000000.000000
GPGPU-Sim uArch: clock periods: 0.00000000142857142857:0.00000000142857142857:0.00000000142857142857:0.00000000108225108225
*** Initializing Memory Statistics ***
GPGPU-Sim uArch: interconnect node map (shaderID+MemID to icntID)
GPGPU-Sim uArch: Memory nodes ID start from index: 15
GPGPU-Sim uArch:    0   1   2   3   4
GPGPU-Sim uArch:    5   6   7   8   9
GPGPU-Sim uArch:   10  11  12  13  14
GPGPU-Sim uArch:   15  16  17  18  19
GPGPU-Sim uArch:   20  21  22  23  24
GPGPU-Sim uArch:   25  26
GPGPU-Sim uArch: interconnect node reverse map (icntID to shaderID+MemID)
GPGPU-Sim uArch: Memory nodes start from ID: 15
GPGPU-Sim uArch:    0   1   2   3   4
GPGPU-Sim uArch:    5   6   7   8   9
GPGPU-Sim uArch:   10  11  12  13  14
GPGPU-Sim uArch:   15  16  17  18  19
GPGPU-Sim uArch:   20  21  22  23  24
GPGPU-Sim uArch:   25  26
ee89055bc58e180b7b05d1332bfe7767  /home/scratch/adwait/applications/benchmarks/CUDA/LPS/gpgpu_ptx_sim__LPS
GPGPU-Sim uArch: performance model initialization complete.
GPGPU-Sim PTX: __cudaRegisterFatBinary, fat_cubin_handle = 1, filename=laplace3d.cu
self exe links to: /home/scratch/adwait/applications/benchmarks/CUDA/LPS/gpgpu_ptx_sim__LPS
Running md5sum using "md5sum /home/scratch/adwait/applications/benchmarks/CUDA/LPS/gpgpu_ptx_sim__LPS "
Running cuobjdump using "$CUDA_INSTALL_PATH/bin/cuobjdump -ptx -elf -sass /home/scratch/adwait/applications/benchmarks/CUDA/LPS/gpgpu_ptx_sim__LPS > _cuobjdump_complete_output_TNXYAO"
Parsing file _cuobjdump_complete_output_TNXYAO
######### cuobjdump parser ########
## Adding new section ELF
Adding arch: sm_20
Adding identifier: laplace3d.cu
## Adding new section PTX
Adding ptx filename: _cuobjdump_1.ptx
Adding arch: sm_20
Adding identifier: laplace3d.cu
Done parsing!!!
GPGPU-Sim PTX: __cudaRegisterFunction _Z13GPU_laplace3diiiiPfS_ : hostFun 0x0x40566f, fat_cubin_handle = 1
GPGPU-Sim PTX: allocating shared region for "__cuda___cuda_local_var_33528_33_non_const_u132" from 0x0 to 0x990 (shared memory space)
GPGPU-Sim PTX: instruction assembly for function '_Z13GPU_laplace3diiiiPfS_'...   done.
GPGPU-Sim PTX: finding reconvergence points for '_Z13GPU_laplace3diiiiPfS_'...
GPGPU-Sim PTX: Finding dominators for '_Z13GPU_laplace3diiiiPfS_'...
GPGPU-Sim PTX: Finding immediate dominators for '_Z13GPU_laplace3diiiiPfS_'...
GPGPU-Sim PTX: Finding postdominators for '_Z13GPU_laplace3diiiiPfS_'...
GPGPU-Sim PTX: Finding immediate postdominators for '_Z13GPU_laplace3diiiiPfS_'...
GPGPU-Sim PTX: pre-decoding instructions for '_Z13GPU_laplace3diiiiPfS_'...
GPGPU-Sim PTX: reconvergence points for _Z13GPU_laplace3diiiiPfS_...
GPGPU-Sim PTX:  1 (potential) branch divergence @  PC=0x060 (_1.ptx:82) @!%p1 bra $Lt_0_14338;
GPGPU-Sim PTX:    immediate post dominator      @  PC=0x230 (_1.ptx:154) add.s32 %r57, %r37, %r12;
GPGPU-Sim PTX:  2 (potential) branch divergence @  PC=0x080 (_1.ptx:86) @%p2 bra $Lt_0_14850;
GPGPU-Sim PTX:    immediate post dominator      @  PC=0x120 (_1.ptx:113) add.s32 %r30, %r16, 1;
GPGPU-Sim PTX:  3 (potential) branch divergence @  PC=0x0a0 (_1.ptx:92) bra.uni $Lt_0_14594;
GPGPU-Sim PTX:    immediate post dominator      @  PC=0x120 (_1.ptx:113) add.s32 %r30, %r16, 1;
GPGPU-Sim PTX:  4 (potential) branch divergence @  PC=0x200 (_1.ptx:145) bra.uni $Lt_0_14082;
GPGPU-Sim PTX:    immediate post dominator      @  PC=0x230 (_1.ptx:154) add.s32 %r57, %r37, %r12;
GPGPU-Sim PTX:  5 (potential) branch divergence @  PC=0x290 (_1.ptx:166) @%p5 bra $Lt_0_15106;
GPGPU-Sim PTX:    immediate post dominator      @  PC=0x308 (_1.ptx:183) mov.u64 %rd1, __cuda___cuda_local_var_33528_33_non_const_u132;
GPGPU-Sim PTX:  6 (potential) branch divergence @  PC=0x320 (_1.ptx:186) @!%p6 bra $Lt_0_15618;
GPGPU-Sim PTX:    immediate post dominator      @  PC=0x380 (_1.ptx:200) ld.param.s32 %r73, [__cudaparm__Z13GPU_laplace3diiiiPfS__NZ];
GPGPU-Sim PTX:  7 (potential) branch divergence @  PC=0x398 (_1.ptx:203) @%p7 bra $Lt_0_16130;
GPGPU-Sim PTX:    immediate post dominator      @  PC=0x6d8 (_1.ptx:335) exit;
GPGPU-Sim PTX:  8 (potential) branch divergence @  PC=0x408 (_1.ptx:219) @%p8 bra $Lt_0_17410;
GPGPU-Sim PTX:    immediate post dominator      @  PC=0x4a0 (_1.ptx:245) @!%p6 bra $Lt_0_18434;
GPGPU-Sim PTX:  9 (potential) branch divergence @  PC=0x468 (_1.ptx:235) @%p9 bra $Lt_0_17410;
GPGPU-Sim PTX:    immediate post dominator      @  PC=0x4a0 (_1.ptx:245) @!%p6 bra $Lt_0_18434;
GPGPU-Sim PTX: 10 (potential) branch divergence @  PC=0x4a0 (_1.ptx:245) @!%p6 bra $Lt_0_18434;
GPGPU-Sim PTX:    immediate post dominator      @  PC=0x548 (_1.ptx:273) bar.sync 0;
GPGPU-Sim PTX: 11 (potential) branch divergence @  PC=0x510 (_1.ptx:262) @%p10 bra $Lt_0_18434;
GPGPU-Sim PTX:    immediate post dominator      @  PC=0x548 (_1.ptx:273) bar.sync 0;
GPGPU-Sim PTX: 12 (potential) branch divergence @  PC=0x560 (_1.ptx:276) @%p11 bra $Lt_0_18946;
GPGPU-Sim PTX:    immediate post dominator      @  PC=0x6b8 (_1.ptx:329) bar.sync 0;
GPGPU-Sim PTX: 13 (potential) branch divergence @  PC=0x578 (_1.ptx:280) @%p12 bra $Lt_0_20738;
GPGPU-Sim PTX:    immediate post dominator      @  PC=0x688 (_1.ptx:321) ld.param.u64 %rd35, [__cudaparm__Z13GPU_laplace3diiiiPfS__d_u2];
GPGPU-Sim PTX: 14 (potential) branch divergence @  PC=0x588 (_1.ptx:282) @%p13 bra $Lt_0_20738;
GPGPU-Sim PTX:    immediate post dominator      @  PC=0x688 (_1.ptx:321) ld.param.u64 %rd35, [__cudaparm__Z13GPU_laplace3diiiiPfS__d_u2];
GPGPU-Sim PTX: 15 (potential) branch divergence @  PC=0x5a0 (_1.ptx:285) @%p14 bra $Lt_0_20738;
GPGPU-Sim PTX:    immediate post dominator      @  PC=0x688 (_1.ptx:321) ld.param.u64 %rd35, [__cudaparm__Z13GPU_laplace3diiiiPfS__d_u2];
GPGPU-Sim PTX: 16 (potential) branch divergence @  PC=0x5b0 (_1.ptx:287) @%p15 bra $Lt_0_20738;
GPGPU-Sim PTX:    immediate post dominator      @  PC=0x688 (_1.ptx:321) ld.param.u64 %rd35, [__cudaparm__Z13GPU_laplace3diiiiPfS__d_u2];
GPGPU-Sim PTX: 17 (potential) branch divergence @  PC=0x5c8 (_1.ptx:290) @%p16 bra $Lt_0_20738;
GPGPU-Sim PTX:    immediate post dominator      @  PC=0x688 (_1.ptx:321) ld.param.u64 %rd35, [__cudaparm__Z13GPU_laplace3diiiiPfS__d_u2];
GPGPU-Sim PTX: 18 (potential) branch divergence @  PC=0x5d8 (_1.ptx:292) @%p17 bra $L_0_12546;
GPGPU-Sim PTX:    immediate post dominator      @  PC=0x688 (_1.ptx:321) ld.param.u64 %rd35, [__cudaparm__Z13GPU_laplace3diiiiPfS__d_u2];
GPGPU-Sim PTX: 19 (potential) branch divergence @  PC=0x600 (_1.ptx:300) bra.uni $L_0_12290;
GPGPU-Sim PTX:    immediate post dominator      @  PC=0x688 (_1.ptx:321) ld.param.u64 %rd35, [__cudaparm__Z13GPU_laplace3diiiiPfS__d_u2];
GPGPU-Sim PTX: 20 (potential) branch divergence @  PC=0x6d0 (_1.ptx:332) @%p18 bra $Lt_0_16642;
GPGPU-Sim PTX:    immediate post dominator      @  PC=0x6d8 (_1.ptx:335) exit;
GPGPU-Sim PTX: ... end of reconvergence points for _Z13GPU_laplace3diiiiPfS_
GPGPU-Sim PTX: ... done pre-decoding instructions for '_Z13GPU_laplace3diiiiPfS_'.
GPGPU-Sim PTX: finished parsing EMBEDDED .ptx file _1.ptx
Adding _cuobjdump_1.ptx with cubin handle 1
GPGPU-Sim PTX: extracting embedded .ptx to temporary file "_ptx_OlGCtE"
Running: cat _ptx_OlGCtE | sed 's/.version 1.5/.version 1.4/' | sed 's/, texmode_independent//' | sed 's/\(\.extern \.const\[1\] .b8 \w\+\)\[\]/\1\[1\]/' | sed 's/const\[.\]/const\[0\]/g' > _ptx2_dVLHmu
GPGPU-Sim PTX: generating ptxinfo using "$CUDA_INSTALL_PATH/bin/ptxas --gpu-name=sm_20 -v _ptx2_dVLHmu --output-file  /dev/null 2> _ptx_OlGCtEinfo"
GPGPU-Sim PTX: Kernel '_Z13GPU_laplace3diiiiPfS_' : regs=17, lmem=0, smem=2448, cmem=64
GPGPU-Sim PTX: removing ptxinfo using "rm -f _ptx_OlGCtE _ptx2_dVLHmu _ptx_OlGCtEinfo"
GPGPU-Sim PTX: loading globals with explicit initializers... 
GPGPU-Sim PTX: finished loading globals (0 bytes total).
GPGPU-Sim PTX: loading constants with explicit initializers...  done.

Grid dimensions: 100 x 100 x 100
GPGPU-Sim PTX: cudaMallocPitch (width = 400)
GPGPU-Sim PTX: cudaMallocPitch (width = 400)
GPGPU-Sim: synchronize waiting for inactive GPU simulation
GPGPU-Sim API: Stream Manager State
GPGPU-Sim: detected inactive GPU simulation thread

Copy u1 to device: 137.473007 (ms) 

 dimGrid  = 4 25 1 
 dimBlock = 32 4 1 
GPGPU-Sim: synchronize waiting for inactive GPU simulation
GPGPU-Sim API: Stream Manager State
GPGPU-Sim: detected inactive GPU simulation thread

GPGPU-Sim PTX: cudaLaunch for 0x0x40566f (mode=performance simulation) on stream 0
GPGPU-Sim PTX: pushing kernel '_Z13GPU_laplace3diiiiPfS_' to stream 0, gridDim= (4,25,1) blockDim = (32,4,1) 
kernel '_Z13GPU_laplace3diiiiPfS_' transfer to GPU hardware scheduler
GPGPU-Sim uArch: Shader 1 bind to kernel 1 '_Z13GPU_laplace3diiiiPfS_'
GPGPU-Sim uArch: CTA/core = 8, limited by: cta_limit
GPGPU-Sim uArch: core:  1, cta: 0 initialized @(1,0)
GPGPU-Sim uArch: Shader 2 bind to kernel 1 '_Z13GPU_laplace3diiiiPfS_'
GPGPU-Sim uArch: core:  2, cta: 0 initialized @(1,0)
GPGPU-Sim uArch: Shader 3 bind to kernel 1 '_Z13GPU_laplace3diiiiPfS_'
GPGPU-Sim uArch: core:  3, cta: 0 initialized @(1,0)
GPGPU-Sim uArch: Shader 4 bind to kernel 1 '_Z13GPU_laplace3diiiiPfS_'
GPGPU-Sim uArch: core:  4, cta: 0 initialized @(1,0)
GPGPU-Sim uArch: Shader 5 bind to kernel 1 '_Z13GPU_laplace3diiiiPfS_'
GPGPU-Sim uArch: core:  5, cta: 0 initialized @(1,0)
GPGPU-Sim uArch: Shader 6 bind to kernel 1 '_Z13GPU_laplace3diiiiPfS_'
GPGPU-Sim uArch: core:  6, cta: 0 initialized @(1,0)
GPGPU-Sim uArch: Shader 7 bind to kernel 1 '_Z13GPU_laplace3diiiiPfS_'
GPGPU-Sim uArch: core:  7, cta: 0 initialized @(1,0)
GPGPU-Sim uArch: Shader 8 bind to kernel 1 '_Z13GPU_laplace3diiiiPfS_'
GPGPU-Sim uArch: core:  8, cta: 0 initialized @(1,0)
GPGPU-Sim uArch: Shader 9 bind to kernel 1 '_Z13GPU_laplace3diiiiPfS_'
GPGPU-Sim uArch: core:  9, cta: 0 initialized @(1,0)
GPGPU-Sim uArch: Shader 10 bind to kernel 1 '_Z13GPU_laplace3diiiiPfS_'
GPGPU-Sim uArch: core: 10, cta: 0 initialized @(1,0)
GPGPU-Sim uArch: Shader 11 bind to kernel 1 '_Z13GPU_laplace3diiiiPfS_'
GPGPU-Sim uArch: core: 11, cta: 0 initialized @(1,0)
GPGPU-Sim uArch: Shader 12 bind to kernel 1 '_Z13GPU_laplace3diiiiPfS_'
GPGPU-Sim uArch: core: 12, cta: 0 initialized @(1,0)
GPGPU-Sim uArch: Shader 13 bind to kernel 1 '_Z13GPU_laplace3diiiiPfS_'
GPGPU-Sim uArch: core: 13, cta: 0 initialized @(1,0)
GPGPU-Sim uArch: Shader 14 bind to kernel 1 '_Z13GPU_laplace3diiiiPfS_'
GPGPU-Sim uArch: core: 14, cta: 0 initialized @(1,0)
GPGPU-Sim uArch: Shader 0 bind to kernel 1 '_Z13GPU_laplace3diiiiPfS_'
GPGPU-Sim uArch: core:  0, cta: 0 initialized @(1,0)
GPGPU-Sim uArch: core:  1, cta: 1 initialized @(2,0)
GPGPU-Sim uArch: core:  2, cta: 1 initialized @(2,0)
GPGPU-Sim uArch: core:  3, cta: 1 initialized @(2,0)
GPGPU-Sim uArch: core:  4, cta: 1 initialized @(2,0)
GPGPU-Sim uArch: core:  5, cta: 1 initialized @(2,0)
GPGPU-Sim uArch: core:  6, cta: 1 initialized @(2,0)
GPGPU-Sim uArch: core:  7, cta: 1 initialized @(2,0)
GPGPU-Sim uArch: core:  8, cta: 1 initialized @(2,0)
GPGPU-Sim uArch: core:  9, cta: 1 initialized @(2,0)
GPGPU-Sim uArch: core: 10, cta: 1 initialized @(2,0)
GPGPU-Sim uArch: core: 11, cta: 1 initialized @(2,0)
GPGPU-Sim uArch: core: 12, cta: 1 initialized @(2,0)
GPGPU-Sim uArch: core: 13, cta: 1 initialized @(2,0)
GPGPU-Sim uArch: core: 14, cta: 1 initialized @(2,0)
GPGPU-Sim uArch: core:  0, cta: 1 initialized @(2,0)
GPGPU-Sim uArch: core:  1, cta: 2 initialized @(3,0)
GPGPU-Sim uArch: core:  2, cta: 2 initialized @(3,0)
GPGPU-Sim uArch: core:  3, cta: 2 initialized @(3,0)
GPGPU-Sim uArch: core:  4, cta: 2 initialized @(3,0)
GPGPU-Sim uArch: core:  5, cta: 2 initialized @(3,0)
GPGPU-Sim uArch: core:  6, cta: 2 initialized @(3,0)
GPGPU-Sim uArch: core:  7, cta: 2 initialized @(3,0)
GPGPU-Sim uArch: core:  8, cta: 2 initialized @(3,0)
GPGPU-Sim uArch: core:  9, cta: 2 initialized @(3,0)
GPGPU-Sim uArch: core: 10, cta: 2 initialized @(3,0)
GPGPU-Sim uArch: core: 11, cta: 2 initialized @(3,0)
GPGPU-Sim uArch: core: 12, cta: 2 initialized @(3,0)
GPGPU-Sim uArch: core: 13, cta: 2 initialized @(3,0)
GPGPU-Sim uArch: core: 14, cta: 2 initialized @(3,0)
GPGPU-Sim uArch: core:  0, cta: 2 initialized @(3,0)
GPGPU-Sim uArch: core:  1, cta: 3 initialized @(4,0)
GPGPU-Sim uArch: core:  2, cta: 3 initialized @(4,0)
GPGPU-Sim uArch: core:  3, cta: 3 initialized @(4,0)
GPGPU-Sim uArch: core:  4, cta: 3 initialized @(4,0)
GPGPU-Sim uArch: core:  5, cta: 3 initialized @(4,0)
GPGPU-Sim uArch: core:  6, cta: 3 initialized @(4,0)
GPGPU-Sim uArch: core:  7, cta: 3 initialized @(4,0)
GPGPU-Sim uArch: core:  8, cta: 3 initialized @(4,0)
GPGPU-Sim uArch: core:  9, cta: 3 initialized @(4,0)
GPGPU-Sim uArch: core: 10, cta: 3 initialized @(4,0)
GPGPU-Sim uArch: core: 11, cta: 3 initialized @(4,0)
GPGPU-Sim uArch: core: 12, cta: 3 initialized @(4,0)
GPGPU-Sim uArch: core: 13, cta: 3 initialized @(4,0)
GPGPU-Sim uArch: core: 14, cta: 3 initialized @(4,0)
GPGPU-Sim uArch: core:  0, cta: 3 initialized @(4,0)
GPGPU-Sim uArch: core:  1, cta: 4 initialized @(5,0)
GPGPU-Sim uArch: core:  2, cta: 4 initialized @(5,0)
GPGPU-Sim uArch: core:  3, cta: 4 initialized @(5,0)
GPGPU-Sim uArch: core:  4, cta: 4 initialized @(5,0)
GPGPU-Sim uArch: core:  5, cta: 4 initialized @(5,0)
GPGPU-Sim uArch: core:  6, cta: 4 initialized @(5,0)
GPGPU-Sim uArch: core:  7, cta: 4 initialized @(5,0)
GPGPU-Sim uArch: core:  8, cta: 4 initialized @(5,0)
GPGPU-Sim uArch: core:  9, cta: 4 initialized @(5,0)
GPGPU-Sim uArch: core: 10, cta: 4 initialized @(5,0)
GPGPU-Sim uArch: core: 11, cta: 4 initialized @(5,0)
GPGPU-Sim uArch: core: 12, cta: 4 initialized @(5,0)
GPGPU-Sim uArch: core: 13, cta: 4 initialized @(5,0)
GPGPU-Sim uArch: core: 14, cta: 4 initialized @(5,0)
GPGPU-Sim uArch: core:  0, cta: 4 initialized @(5,0)
GPGPU-Sim uArch: core:  1, cta: 5 initialized @(6,0)
GPGPU-Sim uArch: core:  2, cta: 5 initialized @(6,0)
GPGPU-Sim uArch: core:  3, cta: 5 initialized @(6,0)
GPGPU-Sim uArch: core:  4, cta: 5 initialized @(6,0)
GPGPU-Sim uArch: core:  5, cta: 5 initialized @(6,0)
GPGPU-Sim uArch: core:  6, cta: 5 initialized @(6,0)
GPGPU-Sim uArch: core:  7, cta: 5 initialized @(6,0)
GPGPU-Sim uArch: core:  8, cta: 5 initialized @(6,0)
GPGPU-Sim uArch: core:  9, cta: 5 initialized @(6,0)
GPGPU-Sim uArch: core: 10, cta: 5 initialized @(6,0)
GPGPU-Sim uArch: core: 11, cta: 5 initialized @(6,0)
GPGPU-Sim uArch: core: 12, cta: 5 initialized @(6,0)
GPGPU-Sim uArch: core: 13, cta: 5 initialized @(6,0)
GPGPU-Sim uArch: core: 14, cta: 5 initialized @(6,0)
GPGPU-Sim uArch: core:  0, cta: 5 initialized @(6,0)
GPGPU-Sim uArch: core:  1, cta: 6 initialized @(7,0)
GPGPU-Sim uArch: core:  2, cta: 6 initialized @(7,0)
GPGPU-Sim uArch: core:  3, cta: 6 initialized @(7,0)
GPGPU-Sim uArch: core:  4, cta: 6 initialized @(7,0)
GPGPU-Sim uArch: core:  5, cta: 6 initialized @(7,0)
GPGPU-Sim uArch: core:  6, cta: 6 initialized @(7,0)
GPGPU-Sim uArch: core:  7, cta: 6 initialized @(7,0)
GPGPU-Sim uArch: core:  8, cta: 6 initialized @(7,0)
GPGPU-Sim uArch: core:  9, cta: 6 initialized @(7,0)
GPGPU-Sim uArch: core: 10, cta: 6 initialized @(7,0)
GPGPU-Sim PTX: 100000 instructions simulated : ctaid=(1,4,0) tid=(31,1,0)
GPGPU-Sim uArch: cycles simulated: 500  inst.: 109668 (ipc=219.3) sim_rate=109668 (inst/sec) elapsed = 0:0:00:01 / Tue Apr 16 16:45:33 2019
GPGPU-Sim PTX: 200000 instructions simulated : ctaid=(2,22,0) tid=(19,2,0)
GPGPU-Sim uArch: cycles simulated: 1000  inst.: 283772 (ipc=283.8) sim_rate=141886 (inst/sec) elapsed = 0:0:00:02 / Tue Apr 16 16:45:34 2019
GPGPU-Sim PTX: 300000 instructions simulated : ctaid=(0,11,0) tid=(31,3,0)
GPGPU-Sim PTX: 400000 instructions simulated : ctaid=(3,5,0) tid=(31,1,0)
GPGPU-Sim PTX: 500000 instructions simulated : ctaid=(1,1,0) tid=(23,0,0)
GPGPU-Sim PTX: 600000 instructions simulated : ctaid=(1,6,0) tid=(23,2,0)
GPGPU-Sim PTX: 700000 instructions simulated : ctaid=(2,15,0) tid=(23,0,0)
GPGPU-Sim PTX: 800000 instructions simulated : ctaid=(0,0,0) tid=(9,3,0)
GPGPU-Sim uArch: cycles simulated: 2500  inst.: 853556 (ipc=341.4) sim_rate=284518 (inst/sec) elapsed = 0:0:00:03 / Tue Apr 16 16:45:35 2019
GPGPU-Sim PTX: 900000 instructions simulated : ctaid=(2,7,0) tid=(5,0,0)
GPGPU-Sim PTX: 1000000 instructions simulated : ctaid=(0,9,0) tid=(3,2,0)
GPGPU-Sim uArch: cycles simulated: 3500  inst.: 1039892 (ipc=297.1) sim_rate=259973 (inst/sec) elapsed = 0:0:00:04 / Tue Apr 16 16:45:36 2019
GPGPU-Sim PTX: 1100000 instructions simulated : ctaid=(3,11,0) tid=(13,0,0)
GPGPU-Sim PTX: 1200000 instructions simulated : ctaid=(3,23,0) tid=(1,3,0)
GPGPU-Sim PTX: 1300000 instructions simulated : ctaid=(2,5,0) tid=(0,0,0)
GPGPU-Sim uArch: cycles simulated: 5000  inst.: 1252615 (ipc=250.5) sim_rate=250523 (inst/sec) elapsed = 0:0:00:05 / Tue Apr 16 16:45:37 2019
GPGPU-Sim PTX: 1400000 instructions simulated : ctaid=(2,4,0) tid=(8,2,0)
GPGPU-Sim PTX: 1500000 instructions simulated : ctaid=(3,15,0) tid=(6,2,0)
GPGPU-Sim PTX: 1600000 instructions simulated : ctaid=(1,5,0) tid=(31,2,0)
GPGPU-Sim PTX: 1700000 instructions simulated : ctaid=(3,23,0) tid=(18,2,0)
GPGPU-Sim uArch: cycles simulated: 6500  inst.: 1595405 (ipc=245.4) sim_rate=265900 (inst/sec) elapsed = 0:0:00:06 / Tue Apr 16 16:45:38 2019
GPGPU-Sim PTX: 1800000 instructions simulated : ctaid=(2,14,0) tid=(15,3,0)
GPGPU-Sim PTX: 1900000 instructions simulated : ctaid=(3,8,0) tid=(23,0,0)
GPGPU-Sim uArch: cycles simulated: 7500  inst.: 1817756 (ipc=242.4) sim_rate=259679 (inst/sec) elapsed = 0:0:00:07 / Tue Apr 16 16:45:39 2019
GPGPU-Sim PTX: 2000000 instructions simulated : ctaid=(2,0,0) tid=(1,2,0)
GPGPU-Sim PTX: 2100000 instructions simulated : ctaid=(2,16,0) tid=(12,1,0)
GPGPU-Sim uArch: cycles simulated: 8500  inst.: 2027726 (ipc=238.6) sim_rate=253465 (inst/sec) elapsed = 0:0:00:08 / Tue Apr 16 16:45:40 2019
GPGPU-Sim PTX: 2200000 instructions simulated : ctaid=(3,4,0) tid=(19,0,0)
GPGPU-Sim PTX: 2300000 instructions simulated : ctaid=(2,9,0) tid=(23,0,0)
GPGPU-Sim PTX: 2400000 instructions simulated : ctaid=(1,3,0) tid=(3,1,0)
GPGPU-Sim uArch: cycles simulated: 9500  inst.: 2293025 (ipc=241.4) sim_rate=254780 (inst/sec) elapsed = 0:0:00:09 / Tue Apr 16 16:45:41 2019
GPGPU-Sim PTX: 2500000 instructions simulated : ctaid=(0,7,0) tid=(17,0,0)
GPGPU-Sim PTX: 2600000 instructions simulated : ctaid=(1,17,0) tid=(25,2,0)
GPGPU-Sim PTX: 2700000 instructions simulated : ctaid=(1,12,0) tid=(8,3,0)
GPGPU-Sim uArch: cycles simulated: 10500  inst.: 2490434 (ipc=237.2) sim_rate=249043 (inst/sec) elapsed = 0:0:00:10 / Tue Apr 16 16:45:42 2019
GPGPU-Sim PTX: 2800000 instructions simulated : ctaid=(2,18,0) tid=(1,0,0)
GPGPU-Sim PTX: 2900000 instructions simulated : ctaid=(2,0,0) tid=(1,3,0)
GPGPU-Sim PTX: 3000000 instructions simulated : ctaid=(1,12,0) tid=(2,1,0)
GPGPU-Sim uArch: cycles simulated: 11500  inst.: 2763984 (ipc=240.3) sim_rate=251271 (inst/sec) elapsed = 0:0:00:11 / Tue Apr 16 16:45:43 2019
GPGPU-Sim PTX: 3100000 instructions simulated : ctaid=(1,18,0) tid=(27,0,0)
GPGPU-Sim PTX: 3200000 instructions simulated : ctaid=(3,4,0) tid=(1,1,0)
GPGPU-Sim PTX: 3300000 instructions simulated : ctaid=(0,3,0) tid=(23,3,0)
GPGPU-Sim PTX: 3400000 instructions simulated : ctaid=(1,3,0) tid=(30,1,0)
GPGPU-Sim uArch: cycles simulated: 13000  inst.: 3130719 (ipc=240.8) sim_rate=260893 (inst/sec) elapsed = 0:0:00:12 / Tue Apr 16 16:45:44 2019
GPGPU-Sim PTX: 3500000 instructions simulated : ctaid=(0,10,0) tid=(9,1,0)
GPGPU-Sim PTX: 3600000 instructions simulated : ctaid=(2,17,0) tid=(21,3,0)
GPGPU-Sim uArch: cycles simulated: 14000  inst.: 3312236 (ipc=236.6) sim_rate=254787 (inst/sec) elapsed = 0:0:00:13 / Tue Apr 16 16:45:45 2019
GPGPU-Sim PTX: 3700000 instructions simulated : ctaid=(2,11,0) tid=(20,1,0)
GPGPU-Sim PTX: 3800000 instructions simulated : ctaid=(0,19,0) tid=(17,2,0)
GPGPU-Sim PTX: 3900000 instructions simulated : ctaid=(1,1,0) tid=(25,1,0)
GPGPU-Sim PTX: 4000000 instructions simulated : ctaid=(2,15,0) tid=(16,2,0)
GPGPU-Sim uArch: cycles simulated: 15500  inst.: 3675108 (ipc=237.1) sim_rate=262507 (inst/sec) elapsed = 0:0:00:14 / Tue Apr 16 16:45:46 2019
GPGPU-Sim PTX: 4100000 instructions simulated : ctaid=(2,15,0) tid=(19,1,0)
GPGPU-Sim PTX: 4200000 instructions simulated : ctaid=(0,14,0) tid=(1,3,0)
GPGPU-Sim PTX: 4300000 instructions simulated : ctaid=(1,19,0) tid=(25,3,0)
GPGPU-Sim uArch: cycles simulated: 16500  inst.: 3945863 (ipc=239.1) sim_rate=263057 (inst/sec) elapsed = 0:0:00:15 / Tue Apr 16 16:45:47 2019
GPGPU-Sim PTX: 4400000 instructions simulated : ctaid=(2,2,0) tid=(19,2,0)
GPGPU-Sim PTX: 4500000 instructions simulated : ctaid=(0,21,0) tid=(7,1,0)
GPGPU-Sim PTX: 4600000 instructions simulated : ctaid=(3,0,0) tid=(28,0,0)
GPGPU-Sim uArch: cycles simulated: 17500  inst.: 4196389 (ipc=239.8) sim_rate=262274 (inst/sec) elapsed = 0:0:00:16 / Tue Apr 16 16:45:48 2019
GPGPU-Sim PTX: 4700000 instructions simulated : ctaid=(0,6,0) tid=(1,1,0)
GPGPU-Sim PTX: 4800000 instructions simulated : ctaid=(0,3,0) tid=(3,3,0)
GPGPU-Sim PTX: 4900000 instructions simulated : ctaid=(0,16,0) tid=(25,3,0)
GPGPU-Sim PTX: 5000000 instructions simulated : ctaid=(2,10,0) tid=(26,1,0)
GPGPU-Sim uArch: cycles simulated: 19000  inst.: 4519179 (ipc=237.9) sim_rate=265834 (inst/sec) elapsed = 0:0:00:17 / Tue Apr 16 16:45:49 2019
GPGPU-Sim PTX: 5100000 instructions simulated : ctaid=(2,21,0) tid=(13,2,0)
GPGPU-Sim PTX: 5200000 instructions simulated : ctaid=(0,11,0) tid=(24,0,0)
GPGPU-Sim PTX: 5300000 instructions simulated : ctaid=(1,6,0) tid=(10,0,0)
GPGPU-Sim uArch: cycles simulated: 20000  inst.: 4791221 (ipc=239.6) sim_rate=266178 (inst/sec) elapsed = 0:0:00:18 / Tue Apr 16 16:45:50 2019
GPGPU-Sim PTX: 5400000 instructions simulated : ctaid=(1,11,0) tid=(18,0,0)
GPGPU-Sim PTX: 5500000 instructions simulated : ctaid=(1,14,0) tid=(21,0,0)
GPGPU-Sim PTX: 5600000 instructions simulated : ctaid=(1,17,0) tid=(21,3,0)
GPGPU-Sim uArch: cycles simulated: 21500  inst.: 5102357 (ipc=237.3) sim_rate=268545 (inst/sec) elapsed = 0:0:00:19 / Tue Apr 16 16:45:51 2019
GPGPU-Sim PTX: 5700000 instructions simulated : ctaid=(1,0,0) tid=(7,1,0)
GPGPU-Sim PTX: 5800000 instructions simulated : ctaid=(3,8,0) tid=(1,0,0)
GPGPU-Sim PTX: 5900000 instructions simulated : ctaid=(1,4,0) tid=(15,2,0)
GPGPU-Sim uArch: cycles simulated: 22500  inst.: 5361886 (ipc=238.3) sim_rate=268094 (inst/sec) elapsed = 0:0:00:20 / Tue Apr 16 16:45:52 2019
GPGPU-Sim PTX: 6000000 instructions simulated : ctaid=(2,9,0) tid=(14,3,0)
GPGPU-Sim PTX: 6100000 instructions simulated : ctaid=(2,5,0) tid=(31,2,0)
GPGPU-Sim PTX: 6200000 instructions simulated : ctaid=(0,3,0) tid=(11,1,0)
GPGPU-Sim PTX: 6300000 instructions simulated : ctaid=(1,0,0) tid=(27,3,0)
GPGPU-Sim uArch: cycles simulated: 24000  inst.: 5753991 (ipc=239.7) sim_rate=273999 (inst/sec) elapsed = 0:0:00:21 / Tue Apr 16 16:45:53 2019
GPGPU-Sim PTX: 6400000 instructions simulated : ctaid=(0,6,0) tid=(14,1,0)
GPGPU-Sim PTX: 6500000 instructions simulated : ctaid=(2,11,0) tid=(3,2,0)
GPGPU-Sim PTX: 6600000 instructions simulated : ctaid=(2,5,0) tid=(7,3,0)
GPGPU-Sim uArch: cycles simulated: 25000  inst.: 5968428 (ipc=238.7) sim_rate=271292 (inst/sec) elapsed = 0:0:00:22 / Tue Apr 16 16:45:54 2019
GPGPU-Sim PTX: 6700000 instructions simulated : ctaid=(2,4,0) tid=(13,0,0)
GPGPU-Sim PTX: 6800000 instructions simulated : ctaid=(0,7,0) tid=(18,1,0)
GPGPU-Sim uArch: cycles simulated: 26000  inst.: 6202511 (ipc=238.6) sim_rate=269674 (inst/sec) elapsed = 0:0:00:23 / Tue Apr 16 16:45:55 2019
GPGPU-Sim PTX: 6900000 instructions simulated : ctaid=(2,19,0) tid=(4,0,0)
GPGPU-Sim PTX: 7000000 instructions simulated : ctaid=(2,17,0) tid=(28,0,0)
GPGPU-Sim PTX: 7100000 instructions simulated : ctaid=(0,7,0) tid=(28,1,0)
GPGPU-Sim PTX: 7200000 instructions simulated : ctaid=(2,11,0) tid=(9,3,0)
GPGPU-Sim uArch: cycles simulated: 27000  inst.: 6499744 (ipc=240.7) sim_rate=270822 (inst/sec) elapsed = 0:0:00:24 / Tue Apr 16 16:45:56 2019
GPGPU-Sim PTX: 7300000 instructions simulated : ctaid=(0,3,0) tid=(10,3,0)
GPGPU-Sim PTX: 7400000 instructions simulated : ctaid=(1,12,0) tid=(0,1,0)
GPGPU-Sim PTX: 7500000 instructions simulated : ctaid=(2,10,0) tid=(6,3,0)
GPGPU-Sim uArch: cycles simulated: 28500  inst.: 6816167 (ipc=239.2) sim_rate=272646 (inst/sec) elapsed = 0:0:00:25 / Tue Apr 16 16:45:57 2019
GPGPU-Sim PTX: 7600000 instructions simulated : ctaid=(2,14,0) tid=(17,2,0)
GPGPU-Sim PTX: 7700000 instructions simulated : ctaid=(1,9,0) tid=(21,0,0)
GPGPU-Sim PTX: 7800000 instructions simulated : ctaid=(2,9,0) tid=(19,0,0)
GPGPU-Sim PTX: 7900000 instructions simulated : ctaid=(1,0,0) tid=(11,2,0)
GPGPU-Sim uArch: cycles simulated: 30000  inst.: 7166746 (ipc=238.9) sim_rate=275644 (inst/sec) elapsed = 0:0:00:26 / Tue Apr 16 16:45:58 2019
GPGPU-Sim PTX: 8000000 instructions simulated : ctaid=(0,0,0) tid=(9,0,0)
GPGPU-Sim PTX: 8100000 instructions simulated : ctaid=(0,15,0) tid=(9,0,0)
GPGPU-Sim PTX: 8200000 instructions simulated : ctaid=(0,17,0) tid=(22,2,0)
GPGPU-Sim uArch: cycles simulated: 31000  inst.: 7402313 (ipc=238.8) sim_rate=274159 (inst/sec) elapsed = 0:0:00:27 / Tue Apr 16 16:45:59 2019
GPGPU-Sim PTX: 8300000 instructions simulated : ctaid=(3,3,0) tid=(27,0,0)
GPGPU-Sim PTX: 8400000 instructions simulated : ctaid=(0,6,0) tid=(7,3,0)
GPGPU-Sim PTX: 8500000 instructions simulated : ctaid=(2,0,0) tid=(27,0,0)
GPGPU-Sim uArch: cycles simulated: 32000  inst.: 7670404 (ipc=239.7) sim_rate=273943 (inst/sec) elapsed = 0:0:00:28 / Tue Apr 16 16:46:00 2019
GPGPU-Sim PTX: 8600000 instructions simulated : ctaid=(1,8,0) tid=(24,1,0)
GPGPU-Sim PTX: 8700000 instructions simulated : ctaid=(2,4,0) tid=(26,2,0)
GPGPU-Sim PTX: 8800000 instructions simulated : ctaid=(0,11,0) tid=(4,0,0)
GPGPU-Sim uArch: cycles simulated: 33500  inst.: 7977509 (ipc=238.1) sim_rate=275086 (inst/sec) elapsed = 0:0:00:29 / Tue Apr 16 16:46:01 2019
GPGPU-Sim PTX: 8900000 instructions simulated : ctaid=(1,13,0) tid=(4,2,0)
GPGPU-Sim PTX: 9000000 instructions simulated : ctaid=(2,0,0) tid=(2,1,0)
GPGPU-Sim PTX: 9100000 instructions simulated : ctaid=(0,18,0) tid=(29,3,0)
GPGPU-Sim PTX: 9200000 instructions simulated : ctaid=(2,13,0) tid=(18,1,0)
GPGPU-Sim uArch: cycles simulated: 35000  inst.: 8328487 (ipc=238.0) sim_rate=277616 (inst/sec) elapsed = 0:0:00:30 / Tue Apr 16 16:46:02 2019
GPGPU-Sim PTX: 9300000 instructions simulated : ctaid=(1,21,0) tid=(15,0,0)
GPGPU-Sim PTX: 9400000 instructions simulated : ctaid=(0,8,0) tid=(5,3,0)
GPGPU-Sim PTX: 9500000 instructions simulated : ctaid=(1,13,0) tid=(24,1,0)
GPGPU-Sim uArch: cycles simulated: 36000  inst.: 8579640 (ipc=238.3) sim_rate=276762 (inst/sec) elapsed = 0:0:00:31 / Tue Apr 16 16:46:03 2019
GPGPU-Sim PTX: 9600000 instructions simulated : ctaid=(2,1,0) tid=(9,3,0)
GPGPU-Sim PTX: 9700000 instructions simulated : ctaid=(3,12,0) tid=(3,2,0)
GPGPU-Sim PTX: 9800000 instructions simulated : ctaid=(0,3,0) tid=(6,0,0)
GPGPU-Sim PTX: 9900000 instructions simulated : ctaid=(2,20,0) tid=(28,2,0)
GPGPU-Sim uArch: cycles simulated: 37500  inst.: 8938091 (ipc=238.3) sim_rate=279315 (inst/sec) elapsed = 0:0:00:32 / Tue Apr 16 16:46:04 2019
GPGPU-Sim PTX: 10000000 instructions simulated : ctaid=(2,4,0) tid=(12,0,0)
GPGPU-Sim PTX: 10100000 instructions simulated : ctaid=(0,11,0) tid=(3,0,0)
GPGPU-Sim PTX: 10200000 instructions simulated : ctaid=(0,5,0) tid=(7,2,0)
GPGPU-Sim uArch: cycles simulated: 38500  inst.: 9196024 (ipc=238.9) sim_rate=278667 (inst/sec) elapsed = 0:0:00:33 / Tue Apr 16 16:46:05 2019
GPGPU-Sim PTX: 10300000 instructions simulated : ctaid=(2,21,0) tid=(30,1,0)
GPGPU-Sim PTX: 10400000 instructions simulated : ctaid=(0,14,0) tid=(18,0,0)
GPGPU-Sim uArch: cycles simulated: 39500  inst.: 9394624 (ipc=237.8) sim_rate=276312 (inst/sec) elapsed = 0:0:00:34 / Tue Apr 16 16:46:06 2019
GPGPU-Sim PTX: 10500000 instructions simulated : ctaid=(2,9,0) tid=(3,0,0)
GPGPU-Sim PTX: 10600000 instructions simulated : ctaid=(0,0,0) tid=(11,0,0)
GPGPU-Sim PTX: 10700000 instructions simulated : ctaid=(1,17,0) tid=(11,1,0)
GPGPU-Sim PTX: 10800000 instructions simulated : ctaid=(2,2,0) tid=(13,1,0)
GPGPU-Sim uArch: cycles simulated: 41000  inst.: 9756723 (ipc=238.0) sim_rate=278763 (inst/sec) elapsed = 0:0:00:35 / Tue Apr 16 16:46:07 2019
GPGPU-Sim PTX: 10900000 instructions simulated : ctaid=(1,5,0) tid=(23,0,0)
GPGPU-Sim PTX: 11000000 instructions simulated : ctaid=(0,9,0) tid=(6,3,0)
GPGPU-Sim PTX: 11100000 instructions simulated : ctaid=(0,11,0) tid=(23,0,0)
GPGPU-Sim uArch: cycles simulated: 42000  inst.: 9973507 (ipc=237.5) sim_rate=277041 (inst/sec) elapsed = 0:0:00:36 / Tue Apr 16 16:46:08 2019
GPGPU-Sim PTX: 11200000 instructions simulated : ctaid=(2,7,0) tid=(24,0,0)
GPGPU-Sim PTX: 11300000 instructions simulated : ctaid=(1,11,0) tid=(2,3,0)
GPGPU-Sim PTX: 11400000 instructions simulated : ctaid=(2,1,0) tid=(26,0,0)
GPGPU-Sim PTX: 11500000 instructions simulated : ctaid=(0,13,0) tid=(6,1,0)
GPGPU-Sim uArch: cycles simulated: 43500  inst.: 10346084 (ipc=237.8) sim_rate=279623 (inst/sec) elapsed = 0:0:00:37 / Tue Apr 16 16:46:09 2019
GPGPU-Sim PTX: 11600000 instructions simulated : ctaid=(0,14,0) tid=(16,2,0)
GPGPU-Sim PTX: 11700000 instructions simulated : ctaid=(1,2,0) tid=(27,3,0)
GPGPU-Sim PTX: 11800000 instructions simulated : ctaid=(1,5,0) tid=(25,0,0)
GPGPU-Sim uArch: cycles simulated: 44500  inst.: 10614514 (ipc=238.5) sim_rate=279329 (inst/sec) elapsed = 0:0:00:38 / Tue Apr 16 16:46:10 2019
GPGPU-Sim PTX: 11900000 instructions simulated : ctaid=(0,5,0) tid=(15,2,0)
GPGPU-Sim PTX: 12000000 instructions simulated : ctaid=(2,16,0) tid=(2,2,0)
GPGPU-Sim PTX: 12100000 instructions simulated : ctaid=(0,11,0) tid=(9,1,0)
GPGPU-Sim PTX: 12200000 instructions simulated : ctaid=(0,3,0) tid=(22,0,0)
GPGPU-Sim uArch: cycles simulated: 46000  inst.: 10944274 (ipc=237.9) sim_rate=280622 (inst/sec) elapsed = 0:0:00:39 / Tue Apr 16 16:46:11 2019
GPGPU-Sim PTX: 12300000 instructions simulated : ctaid=(0,15,0) tid=(16,2,0)
GPGPU-Sim PTX: 12400000 instructions simulated : ctaid=(0,3,0) tid=(13,1,0)
GPGPU-Sim PTX: 12500000 instructions simulated : ctaid=(2,2,0) tid=(20,3,0)
GPGPU-Sim uArch: cycles simulated: 47000  inst.: 11210425 (ipc=238.5) sim_rate=280260 (inst/sec) elapsed = 0:0:00:40 / Tue Apr 16 16:46:12 2019
GPGPU-Sim PTX: 12600000 instructions simulated : ctaid=(1,3,0) tid=(10,0,0)
GPGPU-Sim PTX: 12700000 instructions simulated : ctaid=(2,4,0) tid=(15,0,0)
GPGPU-Sim PTX: 12800000 instructions simulated : ctaid=(3,17,0) tid=(28,0,0)
GPGPU-Sim uArch: cycles simulated: 48000  inst.: 11461552 (ipc=238.8) sim_rate=279550 (inst/sec) elapsed = 0:0:00:41 / Tue Apr 16 16:46:13 2019
GPGPU-Sim PTX: 12900000 instructions simulated : ctaid=(1,19,0) tid=(23,1,0)
GPGPU-Sim PTX: 13000000 instructions simulated : ctaid=(0,6,0) tid=(24,1,0)
GPGPU-Sim PTX: 13100000 instructions simulated : ctaid=(0,16,0) tid=(23,1,0)
GPGPU-Sim PTX: 13200000 instructions simulated : ctaid=(1,3,0) tid=(9,2,0)
GPGPU-Sim uArch: cycles simulated: 49500  inst.: 11819084 (ipc=238.8) sim_rate=281406 (inst/sec) elapsed = 0:0:00:42 / Tue Apr 16 16:46:14 2019
GPGPU-Sim PTX: 13300000 instructions simulated : ctaid=(2,19,0) tid=(4,1,0)
GPGPU-Sim PTX: 13400000 instructions simulated : ctaid=(0,16,0) tid=(25,0,0)
GPGPU-Sim uArch: cycles simulated: 50500  inst.: 12063223 (ipc=238.9) sim_rate=280540 (inst/sec) elapsed = 0:0:00:43 / Tue Apr 16 16:46:15 2019
GPGPU-Sim PTX: 13500000 instructions simulated : ctaid=(2,10,0) tid=(4,0,0)
GPGPU-Sim PTX: 13600000 instructions simulated : ctaid=(1,3,0) tid=(8,0,0)
GPGPU-Sim PTX: 13700000 instructions simulated : ctaid=(1,13,0) tid=(8,3,0)
GPGPU-Sim PTX: 13800000 instructions simulated : ctaid=(1,10,0) tid=(14,3,0)
GPGPU-Sim PTX: 13900000 instructions simulated : ctaid=(2,7,0) tid=(10,0,0)
GPGPU-Sim uArch: cycles simulated: 52000  inst.: 12441360 (ipc=239.3) sim_rate=282758 (inst/sec) elapsed = 0:0:00:44 / Tue Apr 16 16:46:16 2019
GPGPU-Sim PTX: 14000000 instructions simulated : ctaid=(0,7,0) tid=(30,3,0)
GPGPU-Sim PTX: 14100000 instructions simulated : ctaid=(3,5,0) tid=(2,3,0)
GPGPU-Sim uArch: cycles simulated: 53000  inst.: 12667858 (ipc=239.0) sim_rate=281507 (inst/sec) elapsed = 0:0:00:45 / Tue Apr 16 16:46:17 2019
GPGPU-Sim PTX: 14200000 instructions simulated : ctaid=(3,13,0) tid=(12,3,0)
GPGPU-Sim PTX: 14300000 instructions simulated : ctaid=(2,6,0) tid=(1,0,0)
GPGPU-Sim PTX: 14400000 instructions simulated : ctaid=(2,16,0) tid=(16,0,0)
GPGPU-Sim PTX: 14500000 instructions simulated : ctaid=(2,6,0) tid=(13,2,0)
GPGPU-Sim uArch: cycles simulated: 54500  inst.: 13000666 (ipc=238.5) sim_rate=282623 (inst/sec) elapsed = 0:0:00:46 / Tue Apr 16 16:46:18 2019
GPGPU-Sim PTX: 14600000 instructions simulated : ctaid=(2,8,0) tid=(23,1,0)
GPGPU-Sim PTX: 14700000 instructions simulated : ctaid=(0,4,0) tid=(10,2,0)
GPGPU-Sim PTX: 14800000 instructions simulated : ctaid=(1,22,0) tid=(24,2,0)
GPGPU-Sim PTX: 14900000 instructions simulated : ctaid=(2,10,0) tid=(3,1,0)
GPGPU-Sim uArch: cycles simulated: 56000  inst.: 13360209 (ipc=238.6) sim_rate=284259 (inst/sec) elapsed = 0:0:00:47 / Tue Apr 16 16:46:19 2019
GPGPU-Sim PTX: 15000000 instructions simulated : ctaid=(3,12,0) tid=(10,1,0)
GPGPU-Sim PTX: 15100000 instructions simulated : ctaid=(0,22,0) tid=(30,0,0)
GPGPU-Sim PTX: 15200000 instructions simulated : ctaid=(0,7,0) tid=(6,1,0)
GPGPU-Sim uArch: cycles simulated: 57000  inst.: 13623541 (ipc=239.0) sim_rate=283823 (inst/sec) elapsed = 0:0:00:48 / Tue Apr 16 16:46:20 2019
GPGPU-Sim PTX: 15300000 instructions simulated : ctaid=(0,5,0) tid=(26,3,0)
GPGPU-Sim PTX: 15400000 instructions simulated : ctaid=(2,10,0) tid=(4,3,0)
GPGPU-Sim PTX: 15500000 instructions simulated : ctaid=(1,14,0) tid=(15,0,0)
GPGPU-Sim PTX: 15600000 instructions simulated : ctaid=(1,12,0) tid=(20,1,0)
GPGPU-Sim uArch: cycles simulated: 58500  inst.: 13940690 (ipc=238.3) sim_rate=284503 (inst/sec) elapsed = 0:0:00:49 / Tue Apr 16 16:46:21 2019
GPGPU-Sim PTX: 15700000 instructions simulated : ctaid=(2,6,0) tid=(22,2,0)
GPGPU-Sim PTX: 15800000 instructions simulated : ctaid=(1,9,0) tid=(11,1,0)
GPGPU-Sim uArch: cycles simulated: 59500  inst.: 14189270 (ipc=238.5) sim_rate=283785 (inst/sec) elapsed = 0:0:00:50 / Tue Apr 16 16:46:22 2019
GPGPU-Sim PTX: 15900000 instructions simulated : ctaid=(2,14,0) tid=(5,1,0)
GPGPU-Sim PTX: 16000000 instructions simulated : ctaid=(0,3,0) tid=(19,2,0)
GPGPU-Sim PTX: 16100000 instructions simulated : ctaid=(3,0,0) tid=(3,0,0)
GPGPU-Sim uArch: cycles simulated: 60500  inst.: 14446417 (ipc=238.8) sim_rate=283263 (inst/sec) elapsed = 0:0:00:51 / Tue Apr 16 16:46:23 2019
GPGPU-Sim PTX: 16200000 instructions simulated : ctaid=(2,12,0) tid=(7,0,0)
GPGPU-Sim PTX: 16300000 instructions simulated : ctaid=(2,18,0) tid=(17,2,0)
GPGPU-Sim PTX: 16400000 instructions simulated : ctaid=(0,0,0) tid=(20,0,0)
GPGPU-Sim PTX: 16500000 instructions simulated : ctaid=(2,9,0) tid=(9,1,0)
GPGPU-Sim uArch: cycles simulated: 62000  inst.: 14803664 (ipc=238.8) sim_rate=284685 (inst/sec) elapsed = 0:0:00:52 / Tue Apr 16 16:46:24 2019
GPGPU-Sim PTX: 16600000 instructions simulated : ctaid=(2,9,0) tid=(13,3,0)
GPGPU-Sim PTX: 16700000 instructions simulated : ctaid=(1,0,0) tid=(17,1,0)
GPGPU-Sim PTX: 16800000 instructions simulated : ctaid=(0,10,0) tid=(10,2,0)
GPGPU-Sim uArch: cycles simulated: 63000  inst.: 15053823 (ipc=238.9) sim_rate=284034 (inst/sec) elapsed = 0:0:00:53 / Tue Apr 16 16:46:25 2019
GPGPU-Sim PTX: 16900000 instructions simulated : ctaid=(2,4,0) tid=(25,0,0)
GPGPU-Sim PTX: 17000000 instructions simulated : ctaid=(1,8,0) tid=(9,0,0)
GPGPU-Sim PTX: 17100000 instructions simulated : ctaid=(1,13,0) tid=(3,1,0)
GPGPU-Sim PTX: 17200000 instructions simulated : ctaid=(0,21,0) tid=(28,1,0)
GPGPU-Sim uArch: cycles simulated: 64500  inst.: 15427167 (ipc=239.2) sim_rate=285688 (inst/sec) elapsed = 0:0:00:54 / Tue Apr 16 16:46:26 2019
GPGPU-Sim PTX: 17300000 instructions simulated : ctaid=(2,22,0) tid=(4,2,0)
GPGPU-Sim PTX: 17400000 instructions simulated : ctaid=(1,17,0) tid=(15,2,0)
GPGPU-Sim PTX: 17500000 instructions simulated : ctaid=(2,24,0) tid=(3,0,0)
GPGPU-Sim uArch: cycles simulated: 65500  inst.: 15629296 (ipc=238.6) sim_rate=284169 (inst/sec) elapsed = 0:0:00:55 / Tue Apr 16 16:46:27 2019
GPGPU-Sim PTX: 17600000 instructions simulated : ctaid=(2,9,0) tid=(15,3,0)
GPGPU-Sim PTX: 17700000 instructions simulated : ctaid=(0,1,0) tid=(8,1,0)
GPGPU-Sim PTX: 17800000 instructions simulated : ctaid=(2,12,0) tid=(22,0,0)
GPGPU-Sim PTX: 17900000 instructions simulated : ctaid=(2,2,0) tid=(6,0,0)
GPGPU-Sim uArch: cycles simulated: 67000  inst.: 16015136 (ipc=239.0) sim_rate=285984 (inst/sec) elapsed = 0:0:00:56 / Tue Apr 16 16:46:28 2019
GPGPU-Sim PTX: 18000000 instructions simulated : ctaid=(2,2,0) tid=(21,0,0)
GPGPU-Sim PTX: 18100000 instructions simulated : ctaid=(1,8,0) tid=(11,1,0)
GPGPU-Sim uArch: cycles simulated: 68000  inst.: 16243735 (ipc=238.9) sim_rate=284977 (inst/sec) elapsed = 0:0:00:57 / Tue Apr 16 16:46:29 2019
GPGPU-Sim PTX: 18200000 instructions simulated : ctaid=(2,6,0) tid=(9,1,0)
GPGPU-Sim PTX: 18300000 instructions simulated : ctaid=(1,3,0) tid=(10,0,0)
GPGPU-Sim PTX: 18400000 instructions simulated : ctaid=(2,18,0) tid=(25,1,0)
GPGPU-Sim PTX: 18500000 instructions simulated : ctaid=(2,0,0) tid=(30,1,0)
GPGPU-Sim uArch: cycles simulated: 69500  inst.: 16581469 (ipc=238.6) sim_rate=285887 (inst/sec) elapsed = 0:0:00:58 / Tue Apr 16 16:46:30 2019
GPGPU-Sim PTX: 18600000 instructions simulated : ctaid=(1,4,0) tid=(31,3,0)
GPGPU-Sim PTX: 18700000 instructions simulated : ctaid=(0,1,0) tid=(27,0,0)
GPGPU-Sim PTX: 18800000 instructions simulated : ctaid=(2,15,0) tid=(4,3,0)
GPGPU-Sim uArch: cycles simulated: 70500  inst.: 16827350 (ipc=238.7) sim_rate=285209 (inst/sec) elapsed = 0:0:00:59 / Tue Apr 16 16:46:31 2019
GPGPU-Sim PTX: 18900000 instructions simulated : ctaid=(0,12,0) tid=(24,3,0)
GPGPU-Sim PTX: 19000000 instructions simulated : ctaid=(0,16,0) tid=(14,2,0)
GPGPU-Sim PTX: 19100000 instructions simulated : ctaid=(1,0,0) tid=(17,0,0)
GPGPU-Sim PTX: 19200000 instructions simulated : ctaid=(0,0,0) tid=(3,2,0)
GPGPU-Sim uArch: cycles simulated: 72000  inst.: 17202635 (ipc=238.9) sim_rate=286710 (inst/sec) elapsed = 0:0:01:00 / Tue Apr 16 16:46:32 2019
GPGPU-Sim PTX: 19300000 instructions simulated : ctaid=(2,1,0) tid=(27,0,0)
GPGPU-Sim PTX: 19400000 instructions simulated : ctaid=(0,21,0) tid=(10,0,0)
GPGPU-Sim PTX: 19500000 instructions simulated : ctaid=(1,7,0) tid=(21,2,0)
GPGPU-Sim uArch: cycles simulated: 73000  inst.: 17448192 (ipc=239.0) sim_rate=286035 (inst/sec) elapsed = 0:0:01:01 / Tue Apr 16 16:46:33 2019
GPGPU-Sim PTX: 19600000 instructions simulated : ctaid=(0,10,0) tid=(6,0,0)
GPGPU-Sim PTX: 19700000 instructions simulated : ctaid=(2,1,0) tid=(4,1,0)
GPGPU-Sim PTX: 19800000 instructions simulated : ctaid=(1,10,0) tid=(12,0,0)
GPGPU-Sim PTX: 19900000 instructions simulated : ctaid=(2,21,0) tid=(16,1,0)
GPGPU-Sim uArch: cycles simulated: 74500  inst.: 17774722 (ipc=238.6) sim_rate=286689 (inst/sec) elapsed = 0:0:01:02 / Tue Apr 16 16:46:34 2019
GPGPU-Sim PTX: 20000000 instructions simulated : ctaid=(2,23,0) tid=(19,3,0)
GPGPU-Sim PTX: 20100000 instructions simulated : ctaid=(1,0,0) tid=(21,2,0)
GPGPU-Sim uArch: cycles simulated: 75500  inst.: 18009004 (ipc=238.5) sim_rate=285857 (inst/sec) elapsed = 0:0:01:03 / Tue Apr 16 16:46:35 2019
GPGPU-Sim PTX: 20200000 instructions simulated : ctaid=(1,6,0) tid=(16,0,0)
GPGPU-Sim PTX: 20300000 instructions simulated : ctaid=(2,0,0) tid=(8,3,0)
GPGPU-Sim PTX: 20400000 instructions simulated : ctaid=(2,7,0) tid=(11,0,0)
GPGPU-Sim PTX: 20500000 instructions simulated : ctaid=(2,3,0) tid=(26,1,0)
GPGPU-Sim uArch: cycles simulated: 77000  inst.: 18365874 (ipc=238.5) sim_rate=286966 (inst/sec) elapsed = 0:0:01:04 / Tue Apr 16 16:46:36 2019
GPGPU-Sim PTX: 20600000 instructions simulated : ctaid=(2,3,0) tid=(14,3,0)
GPGPU-Sim PTX: 20700000 instructions simulated : ctaid=(1,1,0) tid=(26,3,0)
GPGPU-Sim PTX: 20800000 instructions simulated : ctaid=(1,20,0) tid=(24,1,0)
GPGPU-Sim uArch: cycles simulated: 78000  inst.: 18611616 (ipc=238.6) sim_rate=286332 (inst/sec) elapsed = 0:0:01:05 / Tue Apr 16 16:46:37 2019
GPGPU-Sim PTX: 20900000 instructions simulated : ctaid=(2,3,0) tid=(13,3,0)
GPGPU-Sim PTX: 21000000 instructions simulated : ctaid=(1,18,0) tid=(17,1,0)
GPGPU-Sim PTX: 21100000 instructions simulated : ctaid=(0,9,0) tid=(2,0,0)
GPGPU-Sim uArch: cycles simulated: 79000  inst.: 18861098 (ipc=238.7) sim_rate=285774 (inst/sec) elapsed = 0:0:01:06 / Tue Apr 16 16:46:38 2019
GPGPU-Sim PTX: 21200000 instructions simulated : ctaid=(0,17,0) tid=(27,2,0)
GPGPU-Sim PTX: 21300000 instructions simulated : ctaid=(2,7,0) tid=(17,1,0)
GPGPU-Sim PTX: 21400000 instructions simulated : ctaid=(0,12,0) tid=(22,3,0)
GPGPU-Sim PTX: 21500000 instructions simulated : ctaid=(1,20,0) tid=(27,3,0)
GPGPU-Sim uArch: cycles simulated: 80500  inst.: 19215127 (ipc=238.7) sim_rate=286792 (inst/sec) elapsed = 0:0:01:07 / Tue Apr 16 16:46:39 2019
GPGPU-Sim PTX: 21600000 instructions simulated : ctaid=(2,8,0) tid=(12,2,0)
GPGPU-Sim PTX: 21700000 instructions simulated : ctaid=(0,11,0) tid=(28,0,0)
GPGPU-Sim PTX: 21800000 instructions simulated : ctaid=(1,6,0) tid=(2,3,0)
GPGPU-Sim uArch: cycles simulated: 81500  inst.: 19463529 (ipc=238.8) sim_rate=286228 (inst/sec) elapsed = 0:0:01:08 / Tue Apr 16 16:46:40 2019
GPGPU-Sim PTX: 21900000 instructions simulated : ctaid=(0,3,0) tid=(26,0,0)
GPGPU-Sim PTX: 22000000 instructions simulated : ctaid=(2,2,0) tid=(17,2,0)
GPGPU-Sim PTX: 22100000 instructions simulated : ctaid=(2,5,0) tid=(7,0,0)
GPGPU-Sim PTX: 22200000 instructions simulated : ctaid=(1,2,0) tid=(21,0,0)
GPGPU-Sim uArch: cycles simulated: 83000  inst.: 19809849 (ipc=238.7) sim_rate=287099 (inst/sec) elapsed = 0:0:01:09 / Tue Apr 16 16:46:41 2019
GPGPU-Sim PTX: 22300000 instructions simulated : ctaid=(2,20,0) tid=(9,3,0)
GPGPU-Sim PTX: 22400000 instructions simulated : ctaid=(1,11,0) tid=(16,0,0)
GPGPU-Sim uArch: cycles simulated: 84000  inst.: 20053068 (ipc=238.7) sim_rate=286472 (inst/sec) elapsed = 0:0:01:10 / Tue Apr 16 16:46:42 2019
GPGPU-Sim PTX: 22500000 instructions simulated : ctaid=(3,6,0) tid=(2,1,0)
GPGPU-Sim PTX: 22600000 instructions simulated : ctaid=(1,20,0) tid=(7,3,0)
GPGPU-Sim PTX: 22700000 instructions simulated : ctaid=(0,5,0) tid=(7,0,0)
GPGPU-Sim PTX: 22800000 instructions simulated : ctaid=(2,2,0) tid=(23,1,0)
GPGPU-Sim uArch: cycles simulated: 85500  inst.: 20393997 (ipc=238.5) sim_rate=287239 (inst/sec) elapsed = 0:0:01:11 / Tue Apr 16 16:46:43 2019
GPGPU-Sim PTX: 22900000 instructions simulated : ctaid=(1,0,0) tid=(0,1,0)
GPGPU-Sim PTX: 23000000 instructions simulated : ctaid=(1,13,0) tid=(31,0,0)
GPGPU-Sim PTX: 23100000 instructions simulated : ctaid=(1,12,0) tid=(28,1,0)
GPGPU-Sim uArch: cycles simulated: 86500  inst.: 20668858 (ipc=238.9) sim_rate=287067 (inst/sec) elapsed = 0:0:01:12 / Tue Apr 16 16:46:44 2019
GPGPU-Sim PTX: 23200000 instructions simulated : ctaid=(1,18,0) tid=(23,3,0)
GPGPU-Sim PTX: 23300000 instructions simulated : ctaid=(2,6,0) tid=(31,1,0)
GPGPU-Sim PTX: 23400000 instructions simulated : ctaid=(2,2,0) tid=(8,3,0)
GPGPU-Sim uArch: cycles simulated: 87500  inst.: 20912273 (ipc=239.0) sim_rate=286469 (inst/sec) elapsed = 0:0:01:13 / Tue Apr 16 16:46:45 2019
GPGPU-Sim PTX: 23500000 instructions simulated : ctaid=(3,15,0) tid=(0,2,0)
GPGPU-Sim PTX: 23600000 instructions simulated : ctaid=(3,14,0) tid=(9,1,0)
GPGPU-Sim PTX: 23700000 instructions simulated : ctaid=(2,4,0) tid=(10,2,0)
GPGPU-Sim PTX: 23800000 instructions simulated : ctaid=(1,16,0) tid=(31,1,0)
GPGPU-Sim uArch: cycles simulated: 89000  inst.: 21252641 (ipc=238.8) sim_rate=287197 (inst/sec) elapsed = 0:0:01:14 / Tue Apr 16 16:46:46 2019
GPGPU-Sim PTX: 23900000 instructions simulated : ctaid=(2,11,0) tid=(16,2,0)
GPGPU-Sim PTX: 24000000 instructions simulated : ctaid=(3,12,0) tid=(1,2,0)
GPGPU-Sim PTX: 24100000 instructions simulated : ctaid=(2,0,0) tid=(9,3,0)
GPGPU-Sim uArch: cycles simulated: 90000  inst.: 21525539 (ipc=239.2) sim_rate=287007 (inst/sec) elapsed = 0:0:01:15 / Tue Apr 16 16:46:47 2019
GPGPU-Sim PTX: 24200000 instructions simulated : ctaid=(2,1,0) tid=(0,2,0)
GPGPU-Sim PTX: 24300000 instructions simulated : ctaid=(0,1,0) tid=(4,1,0)
GPGPU-Sim PTX: 24400000 instructions simulated : ctaid=(3,15,0) tid=(0,2,0)
GPGPU-Sim uArch: cycles simulated: 91500  inst.: 21836911 (ipc=238.7) sim_rate=287327 (inst/sec) elapsed = 0:0:01:16 / Tue Apr 16 16:46:48 2019
GPGPU-Sim PTX: 24500000 instructions simulated : ctaid=(1,17,0) tid=(15,3,0)
GPGPU-Sim PTX: 24600000 instructions simulated : ctaid=(1,1,0) tid=(6,2,0)
GPGPU-Sim PTX: 24700000 instructions simulated : ctaid=(1,8,0) tid=(20,1,0)
GPGPU-Sim PTX: 24800000 instructions simulated : ctaid=(2,13,0) tid=(15,0,0)
GPGPU-Sim uArch: cycles simulated: 92500  inst.: 22123378 (ipc=239.2) sim_rate=287316 (inst/sec) elapsed = 0:0:01:17 / Tue Apr 16 16:46:49 2019
GPGPU-Sim PTX: 24900000 instructions simulated : ctaid=(1,21,0) tid=(3,0,0)
GPGPU-Sim PTX: 25000000 instructions simulated : ctaid=(2,2,0) tid=(6,2,0)
GPGPU-Sim PTX: 25100000 instructions simulated : ctaid=(0,9,0) tid=(2,2,0)
GPGPU-Sim uArch: cycles simulated: 94000  inst.: 22412825 (ipc=238.4) sim_rate=287343 (inst/sec) elapsed = 0:0:01:18 / Tue Apr 16 16:46:50 2019
GPGPU-Sim PTX: 25200000 instructions simulated : ctaid=(0,4,0) tid=(24,3,0)
GPGPU-Sim PTX: 25300000 instructions simulated : ctaid=(2,5,0) tid=(25,0,0)
GPGPU-Sim PTX: 25400000 instructions simulated : ctaid=(0,6,0) tid=(26,1,0)
GPGPU-Sim uArch: cycles simulated: 95000  inst.: 22687654 (ipc=238.8) sim_rate=287185 (inst/sec) elapsed = 0:0:01:19 / Tue Apr 16 16:46:51 2019
GPGPU-Sim PTX: 25500000 instructions simulated : ctaid=(2,9,0) tid=(22,2,0)
GPGPU-Sim PTX: 25600000 instructions simulated : ctaid=(1,18,0) tid=(15,0,0)
GPGPU-Sim PTX: 25700000 instructions simulated : ctaid=(2,13,0) tid=(24,1,0)
GPGPU-Sim PTX: 25800000 instructions simulated : ctaid=(2,15,0) tid=(27,0,0)
GPGPU-Sim uArch: cycles simulated: 96500  inst.: 23032111 (ipc=238.7) sim_rate=287901 (inst/sec) elapsed = 0:0:01:20 / Tue Apr 16 16:46:52 2019
GPGPU-Sim PTX: 25900000 instructions simulated : ctaid=(1,10,0) tid=(10,0,0)
GPGPU-Sim PTX: 26000000 instructions simulated : ctaid=(0,6,0) tid=(0,1,0)
GPGPU-Sim uArch: cycles simulated: 97500  inst.: 23248993 (ipc=238.5) sim_rate=287024 (inst/sec) elapsed = 0:0:01:21 / Tue Apr 16 16:46:53 2019
GPGPU-Sim PTX: 26100000 instructions simulated : ctaid=(1,1,0) tid=(19,1,0)
GPGPU-Sim PTX: 26200000 instructions simulated : ctaid=(0,15,0) tid=(22,1,0)
GPGPU-Sim PTX: 26300000 instructions simulated : ctaid=(1,15,0) tid=(5,2,0)
GPGPU-Sim PTX: 26400000 instructions simulated : ctaid=(0,9,0) tid=(1,0,0)
GPGPU-Sim uArch: cycles simulated: 99000  inst.: 23591502 (ipc=238.3) sim_rate=287701 (inst/sec) elapsed = 0:0:01:22 / Tue Apr 16 16:46:54 2019
GPGPU-Sim PTX: 26500000 instructions simulated : ctaid=(2,0,0) tid=(14,3,0)
GPGPU-Sim PTX: 26600000 instructions simulated : ctaid=(0,16,0) tid=(3,0,0)
GPGPU-Sim PTX: 26700000 instructions simulated : ctaid=(1,8,0) tid=(12,1,0)
GPGPU-Sim uArch: cycles simulated: 100000  inst.: 23848453 (ipc=238.5) sim_rate=287330 (inst/sec) elapsed = 0:0:01:23 / Tue Apr 16 16:46:55 2019
GPGPU-Sim PTX: 26800000 instructions simulated : ctaid=(0,8,0) tid=(7,0,0)
GPGPU-Sim PTX: 26900000 instructions simulated : ctaid=(3,4,0) tid=(12,2,0)
GPGPU-Sim PTX: 27000000 instructions simulated : ctaid=(2,17,0) tid=(8,2,0)
GPGPU-Sim PTX: 27100000 instructions simulated : ctaid=(3,3,0) tid=(18,0,0)
GPGPU-Sim uArch: cycles simulated: 101500  inst.: 24211511 (ipc=238.5) sim_rate=288232 (inst/sec) elapsed = 0:0:01:24 / Tue Apr 16 16:46:56 2019
GPGPU-Sim PTX: 27200000 instructions simulated : ctaid=(2,3,0) tid=(25,0,0)
GPGPU-Sim PTX: 27300000 instructions simulated : ctaid=(2,8,0) tid=(27,0,0)
GPGPU-Sim PTX: 27400000 instructions simulated : ctaid=(0,2,0) tid=(21,0,0)
GPGPU-Sim uArch: cycles simulated: 102500  inst.: 24483688 (ipc=238.9) sim_rate=288043 (inst/sec) elapsed = 0:0:01:25 / Tue Apr 16 16:46:57 2019
GPGPU-Sim PTX: 27500000 instructions simulated : ctaid=(1,4,0) tid=(9,2,0)
GPGPU-Sim PTX: 27600000 instructions simulated : ctaid=(0,1,0) tid=(7,3,0)
GPGPU-Sim PTX: 27700000 instructions simulated : ctaid=(2,8,0) tid=(11,2,0)
GPGPU-Sim uArch: cycles simulated: 103500  inst.: 24738102 (ipc=239.0) sim_rate=287652 (inst/sec) elapsed = 0:0:01:26 / Tue Apr 16 16:46:58 2019
GPGPU-Sim PTX: 27800000 instructions simulated : ctaid=(3,6,0) tid=(1,2,0)
GPGPU-Sim PTX: 27900000 instructions simulated : ctaid=(2,18,0) tid=(7,3,0)
GPGPU-Sim PTX: 28000000 instructions simulated : ctaid=(0,2,0) tid=(6,0,0)
GPGPU-Sim uArch: cycles simulated: 104500  inst.: 24972585 (ipc=239.0) sim_rate=287041 (inst/sec) elapsed = 0:0:01:27 / Tue Apr 16 16:46:59 2019
GPGPU-Sim PTX: 28100000 instructions simulated : ctaid=(1,2,0) tid=(20,3,0)
GPGPU-Sim PTX: 28200000 instructions simulated : ctaid=(0,22,0) tid=(21,3,0)
GPGPU-Sim uArch: cycles simulated: 105500  inst.: 25214267 (ipc=239.0) sim_rate=286525 (inst/sec) elapsed = 0:0:01:28 / Tue Apr 16 16:47:00 2019
GPGPU-Sim PTX: 28300000 instructions simulated : ctaid=(0,14,0) tid=(7,1,0)
GPGPU-Sim PTX: 28400000 instructions simulated : ctaid=(0,8,0) tid=(26,1,0)
GPGPU-Sim PTX: 28500000 instructions simulated : ctaid=(0,0,0) tid=(2,3,0)
GPGPU-Sim PTX: 28600000 instructions simulated : ctaid=(2,8,0) tid=(0,1,0)
GPGPU-Sim uArch: cycles simulated: 107000  inst.: 25560985 (ipc=238.9) sim_rate=287202 (inst/sec) elapsed = 0:0:01:29 / Tue Apr 16 16:47:01 2019
GPGPU-Sim PTX: 28700000 instructions simulated : ctaid=(0,19,0) tid=(31,1,0)
GPGPU-Sim PTX: 28800000 instructions simulated : ctaid=(2,4,0) tid=(8,3,0)
GPGPU-Sim PTX: 28900000 instructions simulated : ctaid=(2,11,0) tid=(23,1,0)
GPGPU-Sim uArch: cycles simulated: 108000  inst.: 25820935 (ipc=239.1) sim_rate=286899 (inst/sec) elapsed = 0:0:01:30 / Tue Apr 16 16:47:02 2019
GPGPU-Sim PTX: 29000000 instructions simulated : ctaid=(1,4,0) tid=(19,0,0)
GPGPU-Sim PTX: 29100000 instructions simulated : ctaid=(1,9,0) tid=(19,2,0)
GPGPU-Sim PTX: 29200000 instructions simulated : ctaid=(1,8,0) tid=(0,3,0)
GPGPU-Sim PTX: 29300000 instructions simulated : ctaid=(2,8,0) tid=(11,1,0)
GPGPU-Sim uArch: cycles simulated: 109500  inst.: 26161641 (ipc=238.9) sim_rate=287490 (inst/sec) elapsed = 0:0:01:31 / Tue Apr 16 16:47:03 2019
GPGPU-Sim PTX: 29400000 instructions simulated : ctaid=(0,4,0) tid=(8,1,0)
GPGPU-Sim PTX: 29500000 instructions simulated : ctaid=(1,17,0) tid=(2,2,0)
GPGPU-Sim PTX: 29600000 instructions simulated : ctaid=(0,20,0) tid=(27,0,0)
GPGPU-Sim uArch: cycles simulated: 110500  inst.: 26383904 (ipc=238.8) sim_rate=286781 (inst/sec) elapsed = 0:0:01:32 / Tue Apr 16 16:47:04 2019
GPGPU-Sim PTX: 29700000 instructions simulated : ctaid=(1,1,0) tid=(23,1,0)
GPGPU-Sim PTX: 29800000 instructions simulated : ctaid=(1,9,0) tid=(6,2,0)
GPGPU-Sim PTX: 29900000 instructions simulated : ctaid=(2,1,0) tid=(23,1,0)
GPGPU-Sim PTX: 30000000 instructions simulated : ctaid=(1,9,0) tid=(27,0,0)
GPGPU-Sim uArch: cycles simulated: 112000  inst.: 26772276 (ipc=239.0) sim_rate=287873 (inst/sec) elapsed = 0:0:01:33 / Tue Apr 16 16:47:05 2019
GPGPU-Sim PTX: 30100000 instructions simulated : ctaid=(1,10,0) tid=(2,1,0)
GPGPU-Sim PTX: 30200000 instructions simulated : ctaid=(1,10,0) tid=(18,0,0)
GPGPU-Sim uArch: cycles simulated: 113000  inst.: 26977150 (ipc=238.7) sim_rate=286990 (inst/sec) elapsed = 0:0:01:34 / Tue Apr 16 16:47:06 2019
GPGPU-Sim PTX: 30300000 instructions simulated : ctaid=(3,9,0) tid=(12,2,0)
GPGPU-Sim PTX: 30400000 instructions simulated : ctaid=(1,1,0) tid=(25,0,0)
GPGPU-Sim PTX: 30500000 instructions simulated : ctaid=(1,5,0) tid=(8,2,0)
GPGPU-Sim uArch: cycles simulated: 114000  inst.: 27209025 (ipc=238.7) sim_rate=286410 (inst/sec) elapsed = 0:0:01:35 / Tue Apr 16 16:47:07 2019
GPGPU-Sim PTX: 30600000 instructions simulated : ctaid=(0,21,0) tid=(6,0,0)
GPGPU-Sim PTX: 30700000 instructions simulated : ctaid=(2,4,0) tid=(26,0,0)
GPGPU-Sim PTX: 30800000 instructions simulated : ctaid=(2,7,0) tid=(20,3,0)
GPGPU-Sim PTX: 30900000 instructions simulated : ctaid=(2,8,0) tid=(14,2,0)
GPGPU-Sim uArch: cycles simulated: 115500  inst.: 27541435 (ipc=238.5) sim_rate=286889 (inst/sec) elapsed = 0:0:01:36 / Tue Apr 16 16:47:08 2019
GPGPU-Sim PTX: 31000000 instructions simulated : ctaid=(3,12,0) tid=(0,3,0)
GPGPU-Sim PTX: 31100000 instructions simulated : ctaid=(1,6,0) tid=(20,2,0)
GPGPU-Sim uArch: cycles simulated: 116500  inst.: 27778942 (ipc=238.4) sim_rate=286380 (inst/sec) elapsed = 0:0:01:37 / Tue Apr 16 16:47:09 2019
GPGPU-Sim PTX: 31200000 instructions simulated : ctaid=(0,10,0) tid=(20,0,0)
GPGPU-Sim PTX: 31300000 instructions simulated : ctaid=(1,2,0) tid=(29,1,0)
GPGPU-Sim PTX: 31400000 instructions simulated : ctaid=(2,12,0) tid=(25,3,0)
GPGPU-Sim PTX: 31500000 instructions simulated : ctaid=(0,22,0) tid=(19,0,0)
GPGPU-Sim uArch: cycles simulated: 118000  inst.: 28139503 (ipc=238.5) sim_rate=287137 (inst/sec) elapsed = 0:0:01:38 / Tue Apr 16 16:47:10 2019
GPGPU-Sim PTX: 31600000 instructions simulated : ctaid=(0,8,0) tid=(1,0,0)
GPGPU-Sim PTX: 31700000 instructions simulated : ctaid=(1,4,0) tid=(9,0,0)
GPGPU-Sim PTX: 31800000 instructions simulated : ctaid=(3,2,0) tid=(21,0,0)
GPGPU-Sim PTX: 31900000 instructions simulated : ctaid=(1,11,0) tid=(22,2,0)
GPGPU-Sim uArch: cycles simulated: 119500  inst.: 28482108 (ipc=238.3) sim_rate=287698 (inst/sec) elapsed = 0:0:01:39 / Tue Apr 16 16:47:11 2019
GPGPU-Sim PTX: 32000000 instructions simulated : ctaid=(0,15,0) tid=(22,1,0)
GPGPU-Sim PTX: 32100000 instructions simulated : ctaid=(0,8,0) tid=(0,3,0)
GPGPU-Sim PTX: 32200000 instructions simulated : ctaid=(2,2,0) tid=(27,0,0)
GPGPU-Sim uArch: cycles simulated: 120500  inst.: 28721894 (ipc=238.4) sim_rate=287218 (inst/sec) elapsed = 0:0:01:40 / Tue Apr 16 16:47:12 2019
GPGPU-Sim PTX: 32300000 instructions simulated : ctaid=(0,10,0) tid=(9,0,0)
GPGPU-Sim PTX: 32400000 instructions simulated : ctaid=(1,4,0) tid=(0,2,0)
GPGPU-Sim PTX: 32500000 instructions simulated : ctaid=(2,11,0) tid=(31,2,0)
GPGPU-Sim uArch: cycles simulated: 121500  inst.: 28960966 (ipc=238.4) sim_rate=286742 (inst/sec) elapsed = 0:0:01:41 / Tue Apr 16 16:47:13 2019
GPGPU-Sim PTX: 32600000 instructions simulated : ctaid=(0,5,0) tid=(15,0,0)
GPGPU-Sim PTX: 32700000 instructions simulated : ctaid=(1,5,0) tid=(30,2,0)
GPGPU-Sim PTX: 32800000 instructions simulated : ctaid=(3,8,0) tid=(9,0,0)
GPGPU-Sim PTX: 32900000 instructions simulated : ctaid=(0,15,0) tid=(26,3,0)
GPGPU-Sim uArch: cycles simulated: 123000  inst.: 29331227 (ipc=238.5) sim_rate=287561 (inst/sec) elapsed = 0:0:01:42 / Tue Apr 16 16:47:14 2019
GPGPU-Sim PTX: 33000000 instructions simulated : ctaid=(2,7,0) tid=(7,1,0)
GPGPU-Sim PTX: 33100000 instructions simulated : ctaid=(2,14,0) tid=(13,1,0)
GPGPU-Sim uArch: cycles simulated: 124000  inst.: 29539018 (ipc=238.2) sim_rate=286786 (inst/sec) elapsed = 0:0:01:43 / Tue Apr 16 16:47:15 2019
GPGPU-Sim PTX: 33200000 instructions simulated : ctaid=(0,12,0) tid=(23,3,0)
GPGPU-Sim PTX: 33300000 instructions simulated : ctaid=(1,8,0) tid=(30,3,0)
GPGPU-Sim PTX: 33400000 instructions simulated : ctaid=(0,9,0) tid=(27,1,0)
GPGPU-Sim PTX: 33500000 instructions simulated : ctaid=(0,15,0) tid=(11,2,0)
GPGPU-Sim uArch: cycles simulated: 125500  inst.: 29885708 (ipc=238.1) sim_rate=287362 (inst/sec) elapsed = 0:0:01:44 / Tue Apr 16 16:47:16 2019
GPGPU-Sim PTX: 33600000 instructions simulated : ctaid=(1,16,0) tid=(24,0,0)
GPGPU-Sim PTX: 33700000 instructions simulated : ctaid=(2,5,0) tid=(24,2,0)
GPGPU-Sim uArch: cycles simulated: 126500  inst.: 30103455 (ipc=238.0) sim_rate=286699 (inst/sec) elapsed = 0:0:01:45 / Tue Apr 16 16:47:17 2019
GPGPU-Sim PTX: 33800000 instructions simulated : ctaid=(1,9,0) tid=(3,2,0)
GPGPU-Sim PTX: 33900000 instructions simulated : ctaid=(2,2,0) tid=(0,1,0)
GPGPU-Sim PTX: 34000000 instructions simulated : ctaid=(2,13,0) tid=(22,0,0)
GPGPU-Sim PTX: 34100000 instructions simulated : ctaid=(2,0,0) tid=(20,1,0)
GPGPU-Sim PTX: 34200000 instructions simulated : ctaid=(0,3,0) tid=(25,2,0)
GPGPU-Sim uArch: cycles simulated: 128000  inst.: 30506937 (ipc=238.3) sim_rate=287801 (inst/sec) elapsed = 0:0:01:46 / Tue Apr 16 16:47:18 2019
GPGPU-Sim PTX: 34300000 instructions simulated : ctaid=(1,10,0) tid=(17,2,0)
GPGPU-Sim PTX: 34400000 instructions simulated : ctaid=(2,15,0) tid=(23,0,0)
GPGPU-Sim uArch: cycles simulated: 129000  inst.: 30722351 (ipc=238.2) sim_rate=287124 (inst/sec) elapsed = 0:0:01:47 / Tue Apr 16 16:47:19 2019
GPGPU-Sim PTX: 34500000 instructions simulated : ctaid=(1,13,0) tid=(6,3,0)
GPGPU-Sim PTX: 34600000 instructions simulated : ctaid=(1,4,0) tid=(8,3,0)
GPGPU-Sim PTX: 34700000 instructions simulated : ctaid=(2,15,0) tid=(12,0,0)
GPGPU-Sim PTX: 34800000 instructions simulated : ctaid=(2,1,0) tid=(15,3,0)
GPGPU-Sim PTX: 34900000 instructions simulated : ctaid=(1,3,0) tid=(6,0,0)
GPGPU-Sim uArch: cycles simulated: 130500  inst.: 31091628 (ipc=238.3) sim_rate=287885 (inst/sec) elapsed = 0:0:01:48 / Tue Apr 16 16:47:20 2019
GPGPU-Sim PTX: 35000000 instructions simulated : ctaid=(2,6,0) tid=(11,2,0)
GPGPU-Sim PTX: 35100000 instructions simulated : ctaid=(1,18,0) tid=(27,1,0)
GPGPU-Sim PTX: 35200000 instructions simulated : ctaid=(1,21,0) tid=(17,3,0)
GPGPU-Sim uArch: cycles simulated: 132000  inst.: 31368960 (ipc=237.6) sim_rate=287788 (inst/sec) elapsed = 0:0:01:49 / Tue Apr 16 16:47:21 2019
GPGPU-Sim PTX: 35300000 instructions simulated : ctaid=(0,18,0) tid=(5,0,0)
GPGPU-Sim PTX: 35400000 instructions simulated : ctaid=(1,3,0) tid=(25,0,0)
GPGPU-Sim PTX: 35500000 instructions simulated : ctaid=(2,24,0) tid=(13,3,0)
GPGPU-Sim uArch: cycles simulated: 133000  inst.: 31633129 (ipc=237.8) sim_rate=287573 (inst/sec) elapsed = 0:0:01:50 / Tue Apr 16 16:47:22 2019
GPGPU-Sim PTX: 35600000 instructions simulated : ctaid=(0,16,0) tid=(26,1,0)
GPGPU-Sim PTX: 35700000 instructions simulated : ctaid=(1,3,0) tid=(20,1,0)
GPGPU-Sim PTX: 35800000 instructions simulated : ctaid=(1,9,0) tid=(19,1,0)
GPGPU-Sim PTX: 35900000 instructions simulated : ctaid=(2,1,0) tid=(26,2,0)
GPGPU-Sim uArch: cycles simulated: 134500  inst.: 32018755 (ipc=238.1) sim_rate=288457 (inst/sec) elapsed = 0:0:01:51 / Tue Apr 16 16:47:23 2019
GPGPU-Sim PTX: 36000000 instructions simulated : ctaid=(0,8,0) tid=(22,2,0)
GPGPU-Sim PTX: 36100000 instructions simulated : ctaid=(1,13,0) tid=(26,1,0)
GPGPU-Sim PTX: 36200000 instructions simulated : ctaid=(2,0,0) tid=(7,1,0)
GPGPU-Sim uArch: cycles simulated: 135500  inst.: 32280351 (ipc=238.2) sim_rate=288217 (inst/sec) elapsed = 0:0:01:52 / Tue Apr 16 16:47:24 2019
GPGPU-Sim PTX: 36300000 instructions simulated : ctaid=(0,1,0) tid=(4,0,0)
GPGPU-Sim PTX: 36400000 instructions simulated : ctaid=(1,4,0) tid=(29,0,0)
GPGPU-Sim PTX: 36500000 instructions simulated : ctaid=(0,6,0) tid=(27,0,0)
GPGPU-Sim PTX: 36600000 instructions simulated : ctaid=(2,19,0) tid=(8,1,0)
GPGPU-Sim uArch: cycles simulated: 137000  inst.: 32617262 (ipc=238.1) sim_rate=288648 (inst/sec) elapsed = 0:0:01:53 / Tue Apr 16 16:47:25 2019
GPGPU-Sim PTX: 36700000 instructions simulated : ctaid=(2,3,0) tid=(27,3,0)
GPGPU-Sim PTX: 36800000 instructions simulated : ctaid=(1,0,0) tid=(4,2,0)
GPGPU-Sim uArch: cycles simulated: 138000  inst.: 32850190 (ipc=238.0) sim_rate=288159 (inst/sec) elapsed = 0:0:01:54 / Tue Apr 16 16:47:26 2019
GPGPU-Sim PTX: 36900000 instructions simulated : ctaid=(2,17,0) tid=(6,3,0)
GPGPU-Sim PTX: 37000000 instructions simulated : ctaid=(1,10,0) tid=(21,3,0)
GPGPU-Sim PTX: 37100000 instructions simulated : ctaid=(1,9,0) tid=(1,0,0)
GPGPU-Sim PTX: 37200000 instructions simulated : ctaid=(0,10,0) tid=(20,2,0)
GPGPU-Sim uArch: cycles simulated: 139500  inst.: 33212608 (ipc=238.1) sim_rate=288805 (inst/sec) elapsed = 0:0:01:55 / Tue Apr 16 16:47:27 2019
GPGPU-Sim PTX: 37300000 instructions simulated : ctaid=(2,4,0) tid=(12,0,0)
GPGPU-Sim PTX: 37400000 instructions simulated : ctaid=(0,8,0) tid=(10,1,0)
GPGPU-Sim PTX: 37500000 instructions simulated : ctaid=(1,11,0) tid=(18,1,0)
GPGPU-Sim PTX: 37600000 instructions simulated : ctaid=(0,17,0) tid=(12,3,0)
GPGPU-Sim uArch: cycles simulated: 141000  inst.: 33553577 (ipc=238.0) sim_rate=289254 (inst/sec) elapsed = 0:0:01:56 / Tue Apr 16 16:47:28 2019
GPGPU-Sim PTX: 37700000 instructions simulated : ctaid=(1,17,0) tid=(26,1,0)
GPGPU-Sim PTX: 37800000 instructions simulated : ctaid=(0,1,0) tid=(26,1,0)
GPGPU-Sim PTX: 37900000 instructions simulated : ctaid=(1,2,0) tid=(19,1,0)
GPGPU-Sim uArch: cycles simulated: 142000  inst.: 33789730 (ipc=238.0) sim_rate=288801 (inst/sec) elapsed = 0:0:01:57 / Tue Apr 16 16:47:29 2019
GPGPU-Sim PTX: 38000000 instructions simulated : ctaid=(1,2,0) tid=(7,3,0)
GPGPU-Sim PTX: 38100000 instructions simulated : ctaid=(0,14,0) tid=(23,0,0)
GPGPU-Sim PTX: 38200000 instructions simulated : ctaid=(2,10,0) tid=(22,2,0)
GPGPU-Sim uArch: cycles simulated: 143500  inst.: 34082861 (ipc=237.5) sim_rate=288837 (inst/sec) elapsed = 0:0:01:58 / Tue Apr 16 16:47:30 2019
GPGPU-Sim PTX: 38300000 instructions simulated : ctaid=(1,5,0) tid=(15,3,0)
GPGPU-Sim PTX: 38400000 instructions simulated : ctaid=(0,17,0) tid=(10,3,0)
GPGPU-Sim PTX: 38500000 instructions simulated : ctaid=(3,0,0) tid=(18,1,0)
GPGPU-Sim PTX: 38600000 instructions simulated : ctaid=(1,0,0) tid=(27,3,0)
GPGPU-Sim PTX: 38700000 instructions simulated : ctaid=(1,24,0) tid=(24,0,0)
GPGPU-Sim uArch: cycles simulated: 145000  inst.: 34462141 (ipc=237.7) sim_rate=289597 (inst/sec) elapsed = 0:0:01:59 / Tue Apr 16 16:47:31 2019
GPGPU-Sim PTX: 38800000 instructions simulated : ctaid=(1,10,0) tid=(21,1,0)
GPGPU-Sim PTX: 38900000 instructions simulated : ctaid=(2,17,0) tid=(10,3,0)
GPGPU-Sim uArch: cycles simulated: 146000  inst.: 34707727 (ipc=237.7) sim_rate=289231 (inst/sec) elapsed = 0:0:02:00 / Tue Apr 16 16:47:32 2019
GPGPU-Sim PTX: 39000000 instructions simulated : ctaid=(0,8,0) tid=(11,2,0)
GPGPU-Sim PTX: 39100000 instructions simulated : ctaid=(2,12,0) tid=(29,1,0)
GPGPU-Sim PTX: 39200000 instructions simulated : ctaid=(3,8,0) tid=(13,1,0)
GPGPU-Sim PTX: 39300000 instructions simulated : ctaid=(1,13,0) tid=(19,3,0)
GPGPU-Sim uArch: cycles simulated: 147500  inst.: 35034900 (ipc=237.5) sim_rate=289544 (inst/sec) elapsed = 0:0:02:01 / Tue Apr 16 16:47:33 2019
GPGPU-Sim PTX: 39400000 instructions simulated : ctaid=(0,3,0) tid=(3,0,0)
GPGPU-Sim PTX: 39500000 instructions simulated : ctaid=(0,2,0) tid=(5,0,0)
GPGPU-Sim PTX: 39600000 instructions simulated : ctaid=(0,7,0) tid=(13,3,0)
GPGPU-Sim uArch: cycles simulated: 148500  inst.: 35293959 (ipc=237.7) sim_rate=289294 (inst/sec) elapsed = 0:0:02:02 / Tue Apr 16 16:47:34 2019
GPGPU-Sim PTX: 39700000 instructions simulated : ctaid=(0,11,0) tid=(26,0,0)
GPGPU-Sim PTX: 39800000 instructions simulated : ctaid=(0,20,0) tid=(25,2,0)
GPGPU-Sim PTX: 39900000 instructions simulated : ctaid=(1,12,0) tid=(24,3,0)
GPGPU-Sim PTX: 40000000 instructions simulated : ctaid=(0,14,0) tid=(15,0,0)
GPGPU-Sim uArch: cycles simulated: 150000  inst.: 35640662 (ipc=237.6) sim_rate=289761 (inst/sec) elapsed = 0:0:02:03 / Tue Apr 16 16:47:35 2019
GPGPU-Sim PTX: 40100000 instructions simulated : ctaid=(0,16,0) tid=(9,0,0)
GPGPU-Sim PTX: 40200000 instructions simulated : ctaid=(2,3,0) tid=(14,2,0)
GPGPU-Sim PTX: 40300000 instructions simulated : ctaid=(3,9,0) tid=(4,2,0)
GPGPU-Sim uArch: cycles simulated: 151500  inst.: 35948527 (ipc=237.3) sim_rate=289907 (inst/sec) elapsed = 0:0:02:04 / Tue Apr 16 16:47:36 2019
GPGPU-Sim PTX: 40400000 instructions simulated : ctaid=(0,12,0) tid=(27,1,0)
GPGPU-Sim PTX: 40500000 instructions simulated : ctaid=(1,20,0) tid=(13,1,0)
GPGPU-Sim PTX: 40600000 instructions simulated : ctaid=(1,15,0) tid=(2,0,0)
GPGPU-Sim uArch: cycles simulated: 152500  inst.: 36211829 (ipc=237.5) sim_rate=289694 (inst/sec) elapsed = 0:0:02:05 / Tue Apr 16 16:47:37 2019
GPGPU-Sim PTX: 40700000 instructions simulated : ctaid=(1,14,0) tid=(30,2,0)
GPGPU-Sim PTX: 40800000 instructions simulated : ctaid=(0,21,0) tid=(27,2,0)
GPGPU-Sim PTX: 40900000 instructions simulated : ctaid=(1,16,0) tid=(23,2,0)
GPGPU-Sim PTX: 41000000 instructions simulated : ctaid=(2,19,0) tid=(20,0,0)
GPGPU-Sim PTX: 41100000 instructions simulated : ctaid=(2,2,0) tid=(11,2,0)
GPGPU-Sim uArch: cycles simulated: 154000  inst.: 36615680 (ipc=237.8) sim_rate=290600 (inst/sec) elapsed = 0:0:02:06 / Tue Apr 16 16:47:38 2019
GPGPU-Sim PTX: 41200000 instructions simulated : ctaid=(3,15,0) tid=(2,2,0)
GPGPU-Sim PTX: 41300000 instructions simulated : ctaid=(2,0,0) tid=(2,2,0)
GPGPU-Sim uArch: cycles simulated: 155000  inst.: 36820518 (ipc=237.6) sim_rate=289925 (inst/sec) elapsed = 0:0:02:07 / Tue Apr 16 16:47:39 2019
GPGPU-Sim PTX: 41400000 instructions simulated : ctaid=(0,22,0) tid=(10,0,0)
GPGPU-Sim PTX: 41500000 instructions simulated : ctaid=(2,9,0) tid=(19,0,0)
[...]
traffic_breakdown_memtocore[INST_ACC_R] = 28560 {136:210,}
maxmrqlatency = 190 
maxdqlatency = 0 
maxmflatency = 511 
averagemflatency = 198 
max_icnt2mem_latency = 73 
max_icnt2sh_latency = 333228 
mrq_lat_table:73941 	2777 	1777 	9431 	24873 	9980 	1309 	24 	0 	0 	0 	0 	0 	0 	0 	0 	0 	0 	0 	0 	0 	0 	0 	0 	0 	0 	0 	0 	0 	0 	0 	0 	
dq_lat_table:0 	0 	0 	0 	0 	0 	0 	0 	0 	0 	0 	0 	0 	0 	0 	0 	0 	0 	0 	0 	0 	0 	0 	0 	0 	0 	0 	0 	0 	0 	0 	0 	
mf_lat_table:0 	0 	0 	0 	0 	0 	0 	135091 	66937 	0 	0 	0 	0 	0 	0 	0 	0 	0 	0 	0 	0 	0 	0 	0 	0 	0 	0 	0 	0 	0 	0 	0 	
icnt2mem_lat_table:0 	0 	0 	158128 	41114 	2985 	11 	0 	0 	0 	0 	0 	0 	0 	0 	0 	0 	0 	0 	0 	0 	0 	0 	0 	
icnt2sh_lat_table:0 	0 	0 	66284 	57188 	12177 	129 	0 	0 	0 	0 	0 	612 	1781 	3620 	7167 	14308 	28740 	10022 	0 	0 	0 	0 	0 	
mf_lat_pw_table:0 	0 	0 	0 	0 	0 	0 	663 	2 	0 	0 	0 	0 	0 	0 	0 	0 	0 	0 	0 	0 	0 	0 	0 	0 	0 	0 	0 	0 	0 	0 	0 	
maximum concurrent accesses to same row:
dram[0]:         9        10        14        17        21        17        32        32        13        10        17        19        18        24        12        12 
dram[1]:         8         8        16        12        12        22        32        32        13        11        17        11        17        19        15        10 
dram[2]:        16        10        12        12        14        12        32        32        21        15        18        19        15        12        12        18 
dram[3]:        10        11        16        16        12        12        32        32        12        18        13        17        18        18        14         8 
dram[4]:         8        11        16        13        14        12        32        32        16        17        13        18        22        11        11        18 
dram[5]:         9        13        21        13        13        14        32        32        21        17        17        25        20        11        13         9 
maximum service time to same row:
dram[0]:     13988     10453     16285     17482     17080     18010     20187     21069      9856     11109      8204      7738      9391     10131     12782     12819 
dram[1]:     13496     15075     16282     17472     17036     18220     20418     21614      9100     13426      8647      7738      9379     10122     12782     12813 
dram[2]:     13934     14985     16238     17115     17043     18208     19977     21334     12403     14535      8883      7757      9302     10150     12766     12810 
dram[3]:     13094     14979     16290     17493     17119     18209     20314     21544     11875     11193      9633      7884      9954     10147     12765     12900 
dram[4]:     12594     14475     16804     16235     17359     18128     20740     21623     11777      9584      7485      8931     10018     10516     12797     12582 
dram[5]:     11581     14471     16797     16982     17069     17766     20909     20414     10587      8814      7750      9891     10035      9929     12794     12887 
average row accesses per activate:
dram[0]:  1.890370  1.794618  1.840517  1.858824  1.935338  1.841270  1.829404  1.852436  1.947067  1.876045  1.906841  1.853901  1.880466  1.905120  1.850941  1.849275 
dram[1]:  1.863768  1.804286  1.898659  1.887387  1.881232  1.942511  1.856738  1.816412  1.952312  1.938218  1.926579  1.851275  1.853411  1.877037  1.891207  1.803094 
dram[2]:  1.846939  1.844702  1.846939  1.819602  1.930618  1.865994  1.875358  1.828411  1.907173  1.923729  1.987860  1.877907  1.865300  1.839363  1.907716  1.869186 
dram[3]:  1.829513  1.871533  1.854626  1.855700  1.856305  1.899557  1.865801  1.882184  1.916667  1.913165  1.865057  1.909224  1.886095  1.870588  1.809728  1.806224 
dram[4]:  1.876672  1.853026  1.821480  1.859827  1.869118  1.910979  1.866762  1.876437  1.915352  1.965665  1.956652  1.884726  1.839650  1.920896  1.827586  1.823782 
dram[5]:  1.896861  1.871533  1.854412  1.881752  1.836442  1.856115  1.830747  1.919708  1.862117  1.957265  1.901903  1.909489  1.803977  1.907324  1.821683  1.825036 
average row locality = 124112/66248 = 1.873445
number of total memory accesses made:
dram[0]:         0         0         0         0         0         0         0         0         0         0         0         0         0         0         0         0 
dram[1]:         0         0         0         0         0         0         0         0         0         0         0         0         0         0         0         0 
dram[2]:         0         0         0         0         0         0         0         0         0         0         0         0         0         0         0         0 
dram[3]:         0         0         0         0         0         0         0         0         0         0         0         0         0         0         0         0 
dram[4]:         0         0         0         0         0         0         0         0         0         0         0         0         0         0         0         0 
dram[5]:         0         0         0         0         0         0         0         0         0         0         0         0         0         0         0         0 
total accesses: 0
min_bank_accesses = 0!
min_chip_accesses = 0!
number of total read accesses:
dram[0]:       683       681       693       683       697       692       721       708       714       706       694       696       690       678       683       678 
dram[1]:       683       680       686       676       695       696       714       717       711       705       692       696       684       676       679       680 
dram[2]:       672       681       681       690       690       706       710       717       710       709       691       690       681       681       672       685 
dram[3]:       679       691       676       690       686       697       704       719       697       708       694       697       679       680       676       677 
dram[4]:       677       697       673       694       681       702       714       718       703       720       689       701       679       684       677       682 
dram[5]:       676       693       681       688       691       703       714       718       698       716       685       700       678       678       683       690 
total reads: 66466
bank skew: 721/672 = 1.07
chip skew: 11097/11050 = 1.00
number of total write accesses:
dram[0]:       593       586       588       581       590       584       598       585       647       641       616       611       600       587       596       598 
dram[1]:       603       583       588       581       588       588       595       589       640       644       620       611       593       591       590       602 
dram[2]:       595       590       586       591       590       589       599       583       646       653       619       602       593       590       589       601 
dram[3]:       598       591       587       596       580       589       589       591       637       658       619       607       596       592       589       600 
dram[4]:       586       589       582       593       590       586       589       588       632       654       620       607       583       603       595       591 
dram[5]:       593       589       580       601       589       587       584       597       639       658       614       608       592       598       594       593 
total reads: 57646
bank skew: 658/580 = 1.13
chip skew: 9619/9588 = 1.00
average mf latency per bank:
dram[0]:        323       320       318       323       323       326       336       336       312       318       318       318       318       322       319       320
dram[1]:        318       323       321       323       321       327       336       335       315       316       318       317       318       320       321       319
dram[2]:        324       322       321       320       323       327       331       334       312       315       322       320       321       323       320       319
dram[3]:        321       321       323       318       331       322       334       334       316       314       320       317       316       323       320       319
dram[4]:        323       318       325       324       332       328       333       337       315       310       321       317       325       320       321       318
dram[5]:        321       316       323       321       329       325       334       334       316       310       320       317       322       326       318       316
maximum mf latency per bank:
dram[0]:        381       360       400       354       359       370       392       396       364       380       366       351       377       364       370       356
dram[1]:        366       365       390       363       377       395       360       395       372       382       403       379       362       415       419       410
dram[2]:        370       383       431       391       369       383       378       375       398       429       394       385       392       382       411       369
dram[3]:        394       366       406       411       380       380       369       379       374       468       423       387       378       371       401       391
dram[4]:        405       365       368       406       374       385       356       392       511       390       361       398       378       354       403       371
dram[5]:        373       380       395       385       378       360       385       356       413       384       394       359       412       365       414       382

Number of Memory Banks Accessed per Memory Operation per Warp (from 0):
0	0	0	0	0	0	0	0	0	0	0	0	0	0	0	0	0	0	0	0	0	0	0	0	0	0	0	0	0	0	0	0	0	0	0	0	0	0	0	0	0	0	0	0	0	0	0	0	0	0	0	0	0	0	0	0	0	0	0	0	0	0	0	0	0	0	0	0	0	0	0	0	0	0	0	0	0	0	0	0	0	0	0	0	0	0	0	0	0	0	0	0	0	0	0	0	
Average # of Memory Banks Accessed per Memory Operation per Warp=-nan

position of mrq chosen
0	0	0	0	0	0	0	0	0	0	0	0	0	0	0	0	

average position of mrq chosen = -nan
Memory Partition 0: 
Cache L2_bank_000:
MSHR contents

Cache L2_bank_001:
MSHR contents

In Dram Latency Queue (total = 0): 
DRAM[0]: 16 bks, busW=4 BL=8 CL=12, tRRD=2 tCCD=6, tRCD=12 tRAS=28 tRP=12 tRC=40
n_cmd=439861 n_nop=379396 n_act=11074 n_pre=11058 n_req=20698 n_rd=22194 n_write=16139 bw_util=0.1743
n_activity=312255 dram_eff=0.2455
bk0: 1366a 408966i bk1: 1362a 408126i bk2: 1386a 408056i bk3: 1366a 408536i bk4: 1394a 408624i bk5: 1384a 408532i bk6: 1442a 407261i bk7: 1416a 407941i bk8: 1428a 407344i bk9: 1412a 407327i bk10: 1388a 407725i bk11: 1392a 407701i bk12: 1380a 408030i bk13: 1356a 409421i bk14: 1366a 408351i bk15: 1356a 408231i 
dram_util_bins: 0 0 0 0 0 0 0 0 0 0
dram_eff_bins: 0 0 0 0 0 0 0 0 0 0
mrqq: max=11 avg=0.586397
Memory Partition 1: 
Cache L2_bank_002:
MSHR contents

Cache L2_bank_003:
MSHR contents

In Dram Latency Queue (total = 0): 
DRAM[1]: 16 bks, busW=4 BL=8 CL=12, tRRD=2 tCCD=6, tRCD=12 tRAS=28 tRP=12 tRC=40
n_cmd=439861 n_nop=379549 n_act=11015 n_pre=10999 n_req=20676 n_rd=22140 n_write=16158 bw_util=0.1741
n_activity=310073 dram_eff=0.247
bk0: 1366a 408494i bk1: 1360a 408152i bk2: 1372a 408873i bk3: 1352a 409324i bk4: 1390a 409000i bk5: 1392a 408698i bk6: 1428a 407853i bk7: 1434a 407560i bk8: 1422a 408056i bk9: 1410a 407548i bk10: 1384a 408888i bk11: 1392a 407977i bk12: 1368a 408514i bk13: 1352a 408450i bk14: 1358a 408089i bk15: 1360a 407182i 
dram_util_bins: 0 0 0 0 0 0 0 0 0 0
dram_eff_bins: 0 0 0 0 0 0 0 0 0 0
mrqq: max=12 avg=0.579083
Memory Partition 2: 
Cache L2_bank_004:
MSHR contents

Cache L2_bank_005:
MSHR contents

In Dram Latency Queue (total = 0): 
DRAM[2]: 16 bks, busW=4 BL=8 CL=12, tRRD=2 tCCD=6, tRCD=12 tRAS=28 tRP=12 tRC=40
n_cmd=439861 n_nop=379537 n_act=11020 n_pre=11004 n_req=20682 n_rd=22132 n_write=16168 bw_util=0.1741
n_activity=309606 dram_eff=0.2474
bk0: 1344a 409098i bk1: 1362a 408352i bk2: 1362a 408610i bk3: 1380a 408126i bk4: 1380a 408627i bk5: 1412a 407924i bk6: 1420a 407678i bk7: 1434a 407903i bk8: 1420a 407305i bk9: 1418a 407167i bk10: 1382a 408869i bk11: 1380a 408094i bk12: 1362a 408272i bk13: 1362a 408126i bk14: 1344a 408667i bk15: 1370a 408150i 
dram_util_bins: 0 0 0 0 0 0 0 0 0 0
dram_eff_bins: 0 0 0 0 0 0 0 0 0 0
mrqq: max=15 avg=0.591685
Memory Partition 3: 
Cache L2_bank_006:
MSHR contents

Cache L2_bank_007:
MSHR contents
MSHR: tag=0x807a0580, atomic=0 1 entries : 0x7f839ce40030 :  mf: uid=4970680, sid03:w24, part=3, addr=0x807a0580, load , size=128, unknown  status = IN_PARTITION_DRAM (333226), 

In Dram Latency Queue (total = 0): 
DRAM[3]: 16 bks, busW=4 BL=8 CL=12, tRRD=2 tCCD=6, tRCD=12 tRAS=28 tRP=12 tRC=40
n_cmd=439861 n_nop=379485 n_act=11064 n_pre=11048 n_req=20669 n_rd=22100 n_write=16164 bw_util=0.174
n_activity=310183 dram_eff=0.2467
bk0: 1358a 408277i bk1: 1382a 408066i bk2: 1352a 408031i bk3: 1380a 408416i bk4: 1372a 408389i bk5: 1394a 408311i bk6: 1408a 407928i bk7: 1438a 408097i bk8: 1394a 407797i bk9: 1416a 407038i bk10: 1388a 407971i bk11: 1394a 408094i bk12: 1358a 408778i bk13: 1360a 408367i bk14: 1352a 408704i bk15: 1354a 407579i 
dram_util_bins: 0 0 0 0 0 0 0 0 0 0
dram_eff_bins: 0 0 0 0 0 0 0 0 0 0
mrqq: max=11 avg=0.587354
Memory Partition 4: 
Cache L2_bank_008:
MSHR contents

Cache L2_bank_009:
MSHR contents

In Dram Latency Queue (total = 0): 
DRAM[4]: 16 bks, busW=4 BL=8 CL=12, tRRD=2 tCCD=6, tRCD=12 tRAS=28 tRP=12 tRC=40
n_cmd=439861 n_nop=379569 n_act=11005 n_pre=10989 n_req=20679 n_rd=22182 n_write=16116 bw_util=0.1741
n_activity=309753 dram_eff=0.2473
bk0: 1354a 408940i bk1: 1394a 408376i bk2: 1346a 408412i bk3: 1388a 407778i bk4: 1362a 408895i bk5: 1404a 408426i bk6: 1428a 407886i bk7: 1436a 407907i bk8: 1406a 408048i bk9: 1440a 407446i bk10: 1378a 408603i bk11: 1402a 407577i bk12: 1358a 408504i bk13: 1368a 409086i bk14: 1354a 408476i bk15: 1364a 407798i 
dram_util_bins: 0 0 0 0 0 0 0 0 0 0
dram_eff_bins: 0 0 0 0 0 0 0 0 0 0
mrqq: max=10 avg=0.58716
Memory Partition 5: 
Cache L2_bank_010:
MSHR contents

Cache L2_bank_011:
MSHR contents

In Dram Latency Queue (total = 0): 
DRAM[5]: 16 bks, busW=4 BL=8 CL=12, tRRD=2 tCCD=6, tRCD=12 tRAS=28 tRP=12 tRC=40
n_cmd=439861 n_nop=379388 n_act=11070 n_pre=11054 n_req=20708 n_rd=22184 n_write=16165 bw_util=0.1744
n_activity=310675 dram_eff=0.2469
bk0: 1352a 409066i bk1: 1386a 408710i bk2: 1362a 408658i bk3: 1376a 408185i bk4: 1382a 408364i bk5: 1406a 408144i bk6: 1428a 407704i bk7: 1436a 408173i bk8: 1396a 407665i bk9: 1432a 407316i bk10: 1370a 408254i bk11: 1400a 408262i bk12: 1356a 407377i bk13: 1356a 409041i bk14: 1366a 407620i bk15: 1380a 408006i 
dram_util_bins: 0 0 0 0 0 0 0 0 0 0
dram_eff_bins: 0 0 0 0 0 0 0 0 0 0
mrqq: max=12 avg=0.582457

========= L2 cache stats =========
L2_cache_bank[0]: Access = 16838, Miss = 5575, Miss_rate = 0.331, Pending_hits = 415, Reservation_fails = 339
L2_cache_bank[1]: Access = 16886, Miss = 5522, Miss_rate = 0.327, Pending_hits = 383, Reservation_fails = 0
L2_cache_bank[2]: Access = 16880, Miss = 5544, Miss_rate = 0.328, Pending_hits = 383, Reservation_fails = 199
L2_cache_bank[3]: Access = 16812, Miss = 5526, Miss_rate = 0.329, Pending_hits = 361, Reservation_fails = 1
L2_cache_bank[4]: Access = 16863, Miss = 5507, Miss_rate = 0.327, Pending_hits = 381, Reservation_fails = 170
L2_cache_bank[5]: Access = 16862, Miss = 5559, Miss_rate = 0.330, Pending_hits = 364, Reservation_fails = 0
L2_cache_bank[6]: Access = 16836, Miss = 5491, Miss_rate = 0.326, Pending_hits = 372, Reservation_fails = 168
L2_cache_bank[7]: Access = 16785, Miss = 5559, Miss_rate = 0.331, Pending_hits = 404, Reservation_fails = 0
L2_cache_bank[8]: Access = 16938, Miss = 5493, Miss_rate = 0.324, Pending_hits = 363, Reservation_fails = 61
L2_cache_bank[9]: Access = 16836, Miss = 5598, Miss_rate = 0.333, Pending_hits = 397, Reservation_fails = 0
L2_cache_bank[10]: Access = 16845, Miss = 5506, Miss_rate = 0.327, Pending_hits = 358, Reservation_fails = 0
L2_cache_bank[11]: Access = 16857, Miss = 5586, Miss_rate = 0.331, Pending_hits = 385, Reservation_fails = 0
L2_total_cache_accesses = 202238
L2_total_cache_misses = 66466
L2_total_cache_miss_rate = 0.3287
L2_total_cache_pending_hits = 4566
L2_total_cache_reservation_fails = 938
L2_total_cache_breakdown:
	L2_cache_stats_breakdown[GLOBAL_ACC_R][HIT] = 99162
	L2_cache_stats_breakdown[GLOBAL_ACC_R][HIT_RESERVED] = 2639
	L2_cache_stats_breakdown[GLOBAL_ACC_R][MISS] = 33962
	L2_cache_stats_breakdown[CONST_ACC_R][HIT] = 11
	L2_cache_stats_breakdown[CONST_ACC_R][HIT_RESERVED] = 3
	L2_cache_stats_breakdown[CONST_ACC_R][MISS] = 1
	L2_cache_stats_breakdown[CONST_ACC_R][RESERVATION_FAIL] = 108
	L2_cache_stats_breakdown[GLOBAL_ACC_W][HIT] = 31871
	L2_cache_stats_breakdown[GLOBAL_ACC_W][HIT_RESERVED] = 1890
	L2_cache_stats_breakdown[GLOBAL_ACC_W][MISS] = 32489
	L2_cache_stats_breakdown[GLOBAL_ACC_W][RESERVATION_FAIL] = 3
	L2_cache_stats_breakdown[INST_ACC_R][HIT] = 162
	L2_cache_stats_breakdown[INST_ACC_R][HIT_RESERVED] = 34
	L2_cache_stats_breakdown[INST_ACC_R][MISS] = 14
	L2_cache_stats_breakdown[INST_ACC_R][RESERVATION_FAIL] = 827
L2_cache_data_port_util = 0.131
L2_cache_fill_port_util = 0.066

icnt_total_pkts_mem_to_simt=746160
icnt_total_pkts_simt_to_mem=362238
LD_mem_lat_dist  0 0 0 0 0 0 0 0 0 0 0 0 0 0 0 0 0 0 0 0 0 0 0 0 0 0 0
ST_mem_lat_dist  0 0 0 0 0 0 0 0 0 0 0 0 0 0 0 0 0 0 0 0 0 0 0 0 0 0 0
----------------------------Interconnect-DETAILS--------------------------------
Class 0:
Packet latency average = 12.2189
	minimum = 6
	maximum = 83
Network latency average = 11.1498
	minimum = 6
	maximum = 77
Slowest packet = 3733
Flit latency average = 10.0102
	minimum = 6
	maximum = 73
Slowest flit = 10951
Fragmentation average = 0
	minimum = 0
	maximum = 0
Injected packet rate average = 0.0449558
	minimum = 0.0342347 (at node 13)
	maximum = 0.0508299 (at node 23)
Accepted packet rate average = 0.0449558
	minimum = 0.0342347 (at node 13)
	maximum = 0.0508299 (at node 23)
Injected flit rate average = 0.123194
	minimum = 0.060643 (at node 13)
	maximum = 0.187877 (at node 23)
Accepted flit rate average= 0.123194
	minimum = 0.0904003 (at node 22)
	maximum = 0.165181 (at node 7)
Injected packet length average = 2.74033
Accepted packet length average = 2.74033
Total in-flight flits = 0 (0 measured)
====== Overall Traffic Statistics ======
====== Traffic class 0 ======
Packet latency average = 12.2189 (1 samples)
	minimum = 6 (1 samples)
	maximum = 83 (1 samples)
Network latency average = 11.1498 (1 samples)
	minimum = 6 (1 samples)
	maximum = 77 (1 samples)
Flit latency average = 10.0102 (1 samples)
	minimum = 6 (1 samples)
	maximum = 73 (1 samples)
Fragmentation average = 0 (1 samples)
	minimum = 0 (1 samples)
	maximum = 0 (1 samples)
Injected packet rate average = 0.0449558 (1 samples)
	minimum = 0.0342347 (1 samples)
	maximum = 0.0508299 (1 samples)
Accepted packet rate average = 0.0449558 (1 samples)
	minimum = 0.0342347 (1 samples)
	maximum = 0.0508299 (1 samples)
Injected flit rate average = 0.123194 (1 samples)
	minimum = 0.060643 (1 samples)
	maximum = 0.187877 (1 samples)
Accepted flit rate average = 0.123194 (1 samples)
	minimum = 0.0904003 (1 samples)
	maximum = 0.165181 (1 samples)
Injected packet size average = 2.74033 (1 samples)
Accepted packet size average = 2.74033 (1 samples)
Hops average = 1 (1 samples)
----------------------------END-of-Interconnect-DETAILS-------------------------


gpgpu_simulation_time = 0 days, 0 hrs, 4 min, 1 sec (241 sec)
gpgpu_simulation_rate = 301708 (inst/sec)
gpgpu_simulation_rate = 1382 (cycle/sec)
GPGPU-Sim: synchronize waiting for inactive GPU simulation
GPGPU-Sim API: Stream Manager State
GPGPU-Sim: detected inactive GPU simulation thread

1x GPU_laplace3d: 239859.687500 (ms) 

Copy u2 to host: 74.014999 (ms) 

1x Gold_laplace3d: 12.039000 (ms) 
 

 rms error = 0.000000 
CUDA_SAFE_CALL( cudaFree(d_u1) );
CUDA_SAFE_CALL( cudaFree(d_u2) );
free(h_u1);
free(h_u2);
free(h_u3);

Press ENTER to exit...
