

        *** GPGPU-Sim Simulator Version 3.2.2  [build 0] ***


GPGPU-Sim PTX: simulation mode 0 (can change with PTX_SIM_MODE_FUNC environment variable:
               1=functional simulation only, 0=detailed performance simulator)
GPGPU-Sim: Configuration options:

-network_mode                           1 # Interconnection network mode
-inter_config_file   config_fermi_islip.icnt # Interconnection network config file
-gpgpu_ptx_use_cuobjdump                    1 # Use cuobjdump to extract ptx and sass from binaries
-gpgpu_experimental_lib_support                    0 # Try to extract code from cuda libraries [Broken because of unknown cudaGetExportTable]
-gpgpu_ptx_convert_to_ptxplus                    0 # Convert SASS (native ISA) to ptxplus and run ptxplus
-gpgpu_ptx_force_max_capability                   20 # Force maximum compute capability
-gpgpu_ptx_inst_debug_to_file                    0 # Dump executed instructions' debug information to file
-gpgpu_ptx_inst_debug_file       inst_debug.txt # Executed instructions' debug output file
-gpgpu_ptx_inst_debug_thread_uid                    1 # Thread UID for executed instructions' debug output
-gpgpu_simd_model                       1 # 1 = post-dominator
-gpgpu_shader_core_pipeline              1536:32 # shader core pipeline config, i.e., {<nthread>:<warpsize>}
-gpgpu_tex_cache:l1  4:128:24,L:R:m:N:L,F:128:4,128:2 # per-shader L1 texture cache  (READ-ONLY) config  {<nsets>:<bsize>:<assoc>,<rep>:<wr>:<alloc>:<wr_alloc>,<mshr>:<N>:<merge>,<mq>:<rf>}
-gpgpu_const_cache:l1 64:64:2,L:R:f:N:L,A:2:32,4 # per-shader L1 constant memory cache  (READ-ONLY) config  {<nsets>:<bsize>:<assoc>,<rep>:<wr>:<alloc>:<wr_alloc>,<mshr>:<N>:<merge>,<mq>} 
-gpgpu_cache:il1     4:128:4,L:R:f:N:L,A:2:32,4 # shader L1 instruction cache config  {<nsets>:<bsize>:<assoc>,<rep>:<wr>:<alloc>:<wr_alloc>,<mshr>:<N>:<merge>,<mq>} 
-gpgpu_cache:dl1     32:128:16,L:L:m:N:H,A:32:8,8 # per-shader L1 data cache config  {<nsets>:<bsize>:<assoc>,<rep>:<wr>:<alloc>:<wr_alloc>,<mshr>:<N>:<merge>,<mq> | none}
-gpgpu_cache:dl1PrefL1                 none # per-shader L1 data cache config  {<nsets>:<bsize>:<assoc>,<rep>:<wr>:<alloc>:<wr_alloc>,<mshr>:<N>:<merge>,<mq> | none}
-gpgpu_cache:dl1PreShared                 none # per-shader L1 data cache config  {<nsets>:<bsize>:<assoc>,<rep>:<wr>:<alloc>:<wr_alloc>,<mshr>:<N>:<merge>,<mq> | none}
-gmem_skip_L1D                          0 # global memory access skip L1D cache (implements -Xptxas -dlcm=cg, default=no skip)
-gpgpu_perfect_mem                      0 # enable perfect memory mode (no cache miss)
-n_regfile_gating_group                    4 # group of lanes that should be read/written together)
-gpgpu_clock_gated_reg_file                    0 # enable clock gated reg file for power calculations
-gpgpu_clock_gated_lanes                    0 # enable clock gated lanes for power calculations
-gpgpu_shader_registers                32768 # Number of registers per shader core. Limits number of concurrent CTAs. (default 8192)
-gpgpu_shader_cta                       8 # Maximum number of concurrent CTAs in shader (default 8)
-gpgpu_num_cta_barriers                   16 # Maximum number of named barriers per CTA (default 16)
-gpgpu_n_clusters                      15 # number of processing clusters
-gpgpu_n_cores_per_cluster                    1 # number of simd cores per cluster
-gpgpu_n_cluster_ejection_buffer_size                    8 # number of packets in ejection buffer
-gpgpu_n_ldst_response_buffer_size                    2 # number of response packets in ld/st unit ejection buffer
-gpgpu_shmem_size                   16384 # Size of shared memory per shader core (default 16kB)
-gpgpu_shmem_size                   49152 # Size of shared memory per shader core (default 16kB)
-gpgpu_shmem_size_PrefL1                16384 # Size of shared memory per shader core (default 16kB)
-gpgpu_shmem_size_PrefShared                16384 # Size of shared memory per shader core (default 16kB)
-gpgpu_shmem_num_banks                   32 # Number of banks in the shared memory in each shader core (default 16)
-gpgpu_shmem_limited_broadcast                    0 # Limit shared memory to do one broadcast per cycle (default on)
-gpgpu_shmem_warp_parts                    1 # Number of portions a warp is divided into for shared memory bank conflict check 
-gpgpu_warpdistro_shader                   -1 # Specify which shader core to collect the warp size distribution from
-gpgpu_warp_issue_shader                    0 # Specify which shader core to collect the warp issue distribution from
-gpgpu_local_mem_map                    1 # Mapping from local memory space address to simulated GPU physical address space (default = enabled)
-gpgpu_num_reg_banks                   16 # Number of register banks (default = 8)
-gpgpu_reg_bank_use_warp_id                    0 # Use warp ID in mapping registers to banks (default = off)
-gpgpu_operand_collector_num_units_sp                    6 # number of collector units (default = 4)
-gpgpu_operand_collector_num_units_sfu                    8 # number of collector units (default = 4)
-gpgpu_operand_collector_num_units_mem                    2 # number of collector units (default = 2)
-gpgpu_operand_collector_num_units_gen                    0 # number of collector units (default = 0)
-gpgpu_operand_collector_num_in_ports_sp                    2 # number of collector unit in ports (default = 1)
-gpgpu_operand_collector_num_in_ports_sfu                    1 # number of collector unit in ports (default = 1)
-gpgpu_operand_collector_num_in_ports_mem                    1 # number of collector unit in ports (default = 1)
-gpgpu_operand_collector_num_in_ports_gen                    0 # number of collector unit in ports (default = 0)
-gpgpu_operand_collector_num_out_ports_sp                    2 # number of collector unit in ports (default = 1)
-gpgpu_operand_collector_num_out_ports_sfu                    1 # number of collector unit in ports (default = 1)
-gpgpu_operand_collector_num_out_ports_mem                    1 # number of collector unit in ports (default = 1)
-gpgpu_operand_collector_num_out_ports_gen                    0 # number of collector unit in ports (default = 0)
-gpgpu_coalesce_arch                   13 # Coalescing arch (default = 13, anything else is off for now)
-gpgpu_num_sched_per_core                    2 # Number of warp schedulers per core
-gpgpu_max_insn_issue_per_warp                    1 # Max number of instructions that can be issued per warp in one cycle by scheduler
-gpgpu_simt_core_sim_order                    1 # Select the simulation order of cores in a cluster (0=Fix, 1=Round-Robin)
-gpgpu_pipeline_widths        2,1,1,2,1,1,2 # Pipeline widths ID_OC_SP,ID_OC_SFU,ID_OC_MEM,OC_EX_SP,OC_EX_SFU,OC_EX_MEM,EX_WB
-gpgpu_num_sp_units                     2 # Number of SP units (default=1)
-gpgpu_num_sfu_units                    1 # Number of SF units (default=1)
-gpgpu_num_mem_units                    1 # Number if ldst units (default=1) WARNING: not hooked up to anything
-gpgpu_scheduler                      gto # Scheduler configuration: < lrr | gto | two_level_active > If two_level_active:<num_active_warps>:<inner_prioritization>:<outer_prioritization>For complete list of prioritization values see shader.h enum scheduler_prioritization_typeDefault: gto
-gpgpu_dram_scheduler                    1 # 0 = fifo, 1 = FR-FCFS (defaul)
-gpgpu_dram_partition_queues              8:8:8:8 # i2$:$2d:d2$:$2i
-l2_ideal                               0 # Use a ideal L2 cache that always hit
-gpgpu_cache:dl2     64:128:8,L:B:m:W:L,A:32:4,4:0,32 # unified banked L2 data cache config  {<nsets>:<bsize>:<assoc>,<rep>:<wr>:<alloc>:<wr_alloc>,<mshr>:<N>:<merge>,<mq>}
-gpgpu_cache:dl2_texture_only                    0 # L2 cache used for texture only
-gpgpu_n_mem                            6 # number of memory modules (e.g. memory controllers) in gpu
-gpgpu_n_sub_partition_per_mchannel                    2 # number of memory subpartition in each memory module
-gpgpu_n_mem_per_ctrlr                    2 # number of memory chips per memory controller
-gpgpu_memlatency_stat                   14 # track and display latency statistics 0x2 enables MC, 0x4 enables queue logs
-gpgpu_frfcfs_dram_sched_queue_size                   16 # 0 = unlimited (default); # entries per chip
-gpgpu_dram_return_queue_size                  116 # 0 = unlimited (default); # entries per chip
-gpgpu_dram_buswidth                    4 # default = 4 bytes (8 bytes per cycle at DDR)
-gpgpu_dram_burst_length                    8 # Burst length of each DRAM request (default = 4 data bus cycle)
-dram_data_command_freq_ratio                    4 # Frequency ratio between DRAM data bus and command bus (default = 2 times, i.e. DDR)
-gpgpu_dram_timing_opt nbk=16:CCD=2:RRD=6:RCD=12:RAS=28:RP=12:RC=40: CL=12:WL=4:CDLR=5:WR=12:nbkgrp=4:CCDL=3:RTPL=2 # DRAM timing parameters = {nbk:tCCD:tRRD:tRCD:tRAS:tRP:tRC:CL:WL:tCDLR:tWR:nbkgrp:tCCDL:tRTPL}
-rop_latency                          120 # ROP queue latency (default 85)
-dram_latency                         100 # DRAM latency (default 30)
-gpgpu_mem_addr_mapping dramid@8;00000000.00000000.00000000.00000000.0000RRRR.RRRRRRRR.BBBCCCCB.CCSSSSSS # mapping memory address to dram model {dramid@<start bit>;<memory address map>}
-gpgpu_mem_addr_test                    0 # run sweep test to check address mapping for aliased address
-gpgpu_mem_address_mask                    1 # 0 = old addressing mask, 1 = new addressing mask, 2 = new add. mask + flipped bank sel and chip sel bits
-gpuwattch_xml_file  gpuwattch_gtx480.xml # GPUWattch XML file
-power_simulation_enabled                    1 # Turn on power simulator (1=On, 0=Off)
-power_per_cycle_dump                    0 # Dump detailed power output each cycle
-power_trace_enabled                    0 # produce a file for the power trace (1=On, 0=Off)
-power_trace_zlevel                     6 # Compression level of the power trace output log (0=no comp, 9=highest)
-steady_power_levels_enabled                    0 # produce a file for the steady power levels (1=On, 0=Off)
-steady_state_definition                  8:4 # allowed deviation:number of samples
-gpgpu_max_cycle                        0 # terminates gpu simulation early (0 = no limit)
-gpgpu_max_insn                         0 # terminates gpu simulation early (0 = no limit)
-gpgpu_max_cta                          0 # terminates gpu simulation early (0 = no limit)
-gpgpu_runtime_stat                   500 # display runtime statistics such as dram utilization {<freq>:<flag>}
-liveness_message_freq                    1 # Minimum number of seconds between simulation liveness messages (0 = always print)
-gpgpu_flush_l1_cache                    0 # Flush L1 cache at the end of each kernel call
-gpgpu_flush_l2_cache                    0 # Flush L2 cache at the end of each kernel call
-gpgpu_deadlock_detect                    1 # Stop the simulation at deadlock (1=on (default), 0=off)
-gpgpu_ptx_instruction_classification                    0 # if enabled will classify ptx instruction types per kernel (Max 255 kernels now)
-gpgpu_ptx_sim_mode                     0 # Select between Performance (default) or Functional simulation (1)
-gpgpu_clock_domains 700.0:700.0:700.0:924.0 # Clock Domain Frequencies in MhZ {<Core Clock>:<ICNT Clock>:<L2 Clock>:<DRAM Clock>}
-gpgpu_max_concurrent_kernel                    8 # maximum kernels that can run concurrently on GPU
-gpgpu_cflog_interval                    0 # Interval between each snapshot in control flow logger
-visualizer_enabled                     0 # Turn on visualizer output (1=On, 0=Off)
-visualizer_outputfile                 NULL # Specifies the output log file for visualizer
-visualizer_zlevel                      6 # Compression level of the visualizer output log (0=no comp, 9=highest)
-trace_enabled                          0 # Turn on traces
-trace_components                    none # comma seperated list of traces to enable. Complete list found in trace_streams.tup. Default none
-trace_sampling_core                    0 # The core which is printed using CORE_DPRINTF. Default 0
-trace_sampling_memory_partition                   -1 # The memory partition which is printed using MEMPART_DPRINTF. Default -1 (i.e. all)
-enable_ptx_file_line_stats                    1 # Turn on PTX source line statistic profiling. (1 = On)
-ptx_line_stats_filename gpgpu_inst_stats.txt # Output file for PTX source line statistics.
-save_embedded_ptx                      0 # saves ptx files embedded in binary as <n>.ptx
-keep                                   0 # keep intermediate files created by GPGPU-Sim when interfacing with external programs
-gpgpu_ptx_save_converted_ptxplus                    0 # Saved converted ptxplus to a file
-ptx_opcode_latency_int         4,13,4,5,145 # Opcode latencies for integers <ADD,MAX,MUL,MAD,DIV>Default 1,1,19,25,145
-ptx_opcode_latency_fp          4,13,4,5,39 # Opcode latencies for single precision floating points <ADD,MAX,MUL,MAD,DIV>Default 1,1,1,1,30
-ptx_opcode_latency_dp         8,19,8,8,330 # Opcode latencies for double precision floating points <ADD,MAX,MUL,MAD,DIV>Default 8,8,8,8,335
-ptx_opcode_initiation_int            1,2,2,1,8 # Opcode initiation intervals for integers <ADD,MAX,MUL,MAD,DIV>Default 1,1,4,4,32
-ptx_opcode_initiation_fp            1,2,1,1,4 # Opcode initiation intervals for single precision floating points <ADD,MAX,MUL,MAD,DIV>Default 1,1,1,1,5
-ptx_opcode_initiation_dp         8,16,8,8,130 # Opcode initiation intervals for double precision floating points <ADD,MAX,MUL,MAD,DIV>Default 8,8,8,8,130
DRAM Timing Options:
nbk                                    16 # number of banks
CCD                                     2 # column to column delay
RRD                                     6 # minimal delay between activation of rows in different banks
RCD                                    12 # row to column delay
RAS                                    28 # time needed to activate row
RP                                     12 # time needed to precharge (deactivate) row
RC                                     40 # row cycle time
CDLR                                    5 # switching from write to read (changes tWTR)
WR                                     12 # last data-in to row precharge
CL                                     12 # CAS latency
WL                                      4 # Write latency
nbkgrp                                  4 # number of bank groups
CCDL                                    3 # column to column delay between accesses to different bank groups
RTPL                                    2 # read to precharge delay between accesses to different bank groups
Total number of memory sub partition = 12
addr_dec_mask[CHIP]  = 0000000000000000 	high:64 low:0
addr_dec_mask[BK]    = 000000000000e100 	high:16 low:8
addr_dec_mask[ROW]   = 000000000fff0000 	high:28 low:16
addr_dec_mask[COL]   = 0000000000001eff 	high:13 low:0
addr_dec_mask[BURST] = 000000000000003f 	high:6 low:0
sub_partition_id_mask = 0000000000000100
GPGPU-Sim uArch: clock freqs: 700000000.000000:700000000.000000:700000000.000000:924000000.000000
GPGPU-Sim uArch: clock periods: 0.00000000142857142857:0.00000000142857142857:0.00000000142857142857:0.00000000108225108225
*** Initializing Memory Statistics ***
GPGPU-Sim uArch: interconnect node map (shaderID+MemID to icntID)
GPGPU-Sim uArch: Memory nodes ID start from index: 15
GPGPU-Sim uArch:    0   1   2   3   4
GPGPU-Sim uArch:    5   6   7   8   9
GPGPU-Sim uArch:   10  11  12  13  14
GPGPU-Sim uArch:   15  16  17  18  19
GPGPU-Sim uArch:   20  21  22  23  24
GPGPU-Sim uArch:   25  26
GPGPU-Sim uArch: interconnect node reverse map (icntID to shaderID+MemID)
GPGPU-Sim uArch: Memory nodes start from ID: 15
GPGPU-Sim uArch:    0   1   2   3   4
GPGPU-Sim uArch:    5   6   7   8   9
GPGPU-Sim uArch:   10  11  12  13  14
GPGPU-Sim uArch:   15  16  17  18  19
GPGPU-Sim uArch:   20  21  22  23  24
GPGPU-Sim uArch:   25  26
db8fd71b22e5f9e87a0df9a155b78fdf  /home/scratch/adwait/applications/benchmarks/CUDA/KMN/gpgpu_ptx_sim__KMN
GPGPU-Sim uArch: performance model initialization complete.
GPGPU-Sim PTX: __cudaRegisterFatBinary, fat_cubin_handle = 1, filename=kmeans_cuda.cu
self exe links to: /home/scratch/adwait/applications/benchmarks/CUDA/KMN/gpgpu_ptx_sim__KMN
Running md5sum using "md5sum /home/scratch/adwait/applications/benchmarks/CUDA/KMN/gpgpu_ptx_sim__KMN "
Running cuobjdump using "$CUDA_INSTALL_PATH/bin/cuobjdump -ptx -elf -sass /home/scratch/adwait/applications/benchmarks/CUDA/KMN/gpgpu_ptx_sim__KMN > _cuobjdump_complete_output_JkMr04"
Parsing file _cuobjdump_complete_output_JkMr04
######### cuobjdump parser ########
## Adding new section ELF
Adding arch: sm_20
Adding identifier: kmeans_cuda.cu
## Adding new section PTX
Adding ptx filename: _cuobjdump_1.ptx
Adding arch: sm_20
Adding identifier: kmeans_cuda.cu
Done parsing!!!
GPGPU-Sim PTX: __cudaRegisterFunction _Z11kmeansPointPfiiiPiS_S_S0_ : hostFun 0x0x402c28, fat_cubin_handle = 1
GPGPU-Sim PTX: instruction assembly for function '_Z14invert_mappingPfS_ii'...   done.
GPGPU-Sim PTX: finding reconvergence points for '_Z14invert_mappingPfS_ii'...
GPGPU-Sim PTX: Finding dominators for '_Z14invert_mappingPfS_ii'...
GPGPU-Sim PTX: Finding immediate dominators for '_Z14invert_mappingPfS_ii'...
GPGPU-Sim PTX: Finding postdominators for '_Z14invert_mappingPfS_ii'...
GPGPU-Sim PTX: Finding immediate postdominators for '_Z14invert_mappingPfS_ii'...
GPGPU-Sim PTX: pre-decoding instructions for '_Z14invert_mappingPfS_ii'...
GPGPU-Sim PTX: reconvergence points for _Z14invert_mappingPfS_ii...
GPGPU-Sim PTX:  1 (potential) branch divergence @  PC=0x038 (_1.ptx:70) @%p1 bra $Lt_0_2050;
GPGPU-Sim PTX:    immediate post dominator      @  PC=0x110 (_1.ptx:103) exit;
GPGPU-Sim PTX:  2 (potential) branch divergence @  PC=0x058 (_1.ptx:74) @%p2 bra $Lt_0_2562;
GPGPU-Sim PTX:    immediate post dominator      @  PC=0x110 (_1.ptx:103) exit;
GPGPU-Sim PTX:  3 (potential) branch divergence @  PC=0x108 (_1.ptx:99) @%p3 bra $Lt_0_3074;
GPGPU-Sim PTX:    immediate post dominator      @  PC=0x110 (_1.ptx:103) exit;
GPGPU-Sim PTX: ... end of reconvergence points for _Z14invert_mappingPfS_ii
GPGPU-Sim PTX: ... done pre-decoding instructions for '_Z14invert_mappingPfS_ii'.
GPGPU-Sim PTX: instruction assembly for function '_Z11kmeansPointPfiiiPiS_S_S0_'...   done.
GPGPU-Sim PTX: finding reconvergence points for '_Z11kmeansPointPfiiiPiS_S_S0_'...
GPGPU-Sim PTX: Finding dominators for '_Z11kmeansPointPfiiiPiS_S_S0_'...
GPGPU-Sim PTX: Finding immediate dominators for '_Z11kmeansPointPfiiiPiS_S_S0_'...
GPGPU-Sim PTX: Finding postdominators for '_Z11kmeansPointPfiiiPiS_S_S0_'...
GPGPU-Sim PTX: Finding immediate postdominators for '_Z11kmeansPointPfiiiPiS_S_S0_'...
GPGPU-Sim PTX: pre-decoding instructions for '_Z11kmeansPointPfiiiPiS_S_S0_'...
GPGPU-Sim PTX: reconvergence points for _Z11kmeansPointPfiiiPiS_S_S0_...
GPGPU-Sim PTX:  1 (potential) branch divergence @  PC=0x180 (_1.ptx:136) @!%p1 bra $Lt_1_4866;
GPGPU-Sim PTX:    immediate post dominator      @  PC=0x320 (_1.ptx:202) @!%p1 bra $Lt_1_7682;
GPGPU-Sim PTX:  2 (potential) branch divergence @  PC=0x1a0 (_1.ptx:140) @%p2 bra $Lt_1_8194;
GPGPU-Sim PTX:    immediate post dominator      @  PC=0x320 (_1.ptx:202) @!%p1 bra $Lt_1_7682;
GPGPU-Sim PTX:  3 (potential) branch divergence @  PC=0x1e8 (_1.ptx:151) @!%p3 bra $Lt_1_8450;
GPGPU-Sim PTX:    immediate post dominator      @  PC=0x2c8 (_1.ptx:185) setp.lt.f32 %p5, %f2, %f1;
GPGPU-Sim PTX:  4 (potential) branch divergence @  PC=0x2b0 (_1.ptx:180) @%p4 bra $Lt_1_6402;
GPGPU-Sim PTX:    immediate post dominator      @  PC=0x2b8 (_1.ptx:181) bra.uni $Lt_1_5890;
GPGPU-Sim PTX:  5 (potential) branch divergence @  PC=0x2b8 (_1.ptx:181) bra.uni $Lt_1_5890;
GPGPU-Sim PTX:    immediate post dominator      @  PC=0x2c8 (_1.ptx:185) setp.lt.f32 %p5, %f2, %f1;
GPGPU-Sim PTX:  6 (potential) branch divergence @  PC=0x2d0 (_1.ptx:186) @!%p5 bra $Lt_1_6914;
GPGPU-Sim PTX:    immediate post dominator      @  PC=0x2e8 (_1.ptx:192) add.s32 %r18, %r18, 1;
GPGPU-Sim PTX:  7 (potential) branch divergence @  PC=0x2f8 (_1.ptx:194) @%p6 bra $Lt_1_5634;
GPGPU-Sim PTX:    immediate post dominator      @  PC=0x300 (_1.ptx:195) bra.uni $Lt_1_4610;
GPGPU-Sim PTX:  8 (potential) branch divergence @  PC=0x300 (_1.ptx:195) bra.uni $Lt_1_4610;
GPGPU-Sim PTX:    immediate post dominator      @  PC=0x320 (_1.ptx:202) @!%p1 bra $Lt_1_7682;
GPGPU-Sim PTX:  9 (potential) branch divergence @  PC=0x310 (_1.ptx:198) bra.uni $Lt_1_4610;
GPGPU-Sim PTX:    immediate post dominator      @  PC=0x320 (_1.ptx:202) @!%p1 bra $Lt_1_7682;
GPGPU-Sim PTX: 10 (potential) branch divergence @  PC=0x320 (_1.ptx:202) @!%p1 bra $Lt_1_7682;
GPGPU-Sim PTX:    immediate post dominator      @  PC=0x350 (_1.ptx:211) exit;
GPGPU-Sim PTX: ... end of reconvergence points for _Z11kmeansPointPfiiiPiS_S_S0_
GPGPU-Sim PTX: ... done pre-decoding instructions for '_Z11kmeansPointPfiiiPiS_S_S0_'.
GPGPU-Sim PTX: allocating global region for "t_features" from 0x100 to 0x104 (global memory space)
GPGPU-Sim PTX: allocating global region for "t_features_flipped" from 0x104 to 0x108 (global memory space)
GPGPU-Sim PTX: allocating global region for "t_clusters" from 0x108 to 0x10c (global memory space)
GPGPU-Sim PTX: finished parsing EMBEDDED .ptx file _1.ptx
Adding _cuobjdump_1.ptx with cubin handle 1
GPGPU-Sim PTX: extracting embedded .ptx to temporary file "_ptx_oiKhnm"
Running: cat _ptx_oiKhnm | sed 's/.version 1.5/.version 1.4/' | sed 's/, texmode_independent//' | sed 's/\(\.extern \.const\[1\] .b8 \w\+\)\[\]/\1\[1\]/' | sed 's/const\[.\]/const\[0\]/g' > _ptx2_9LVsKD
GPGPU-Sim PTX: generating ptxinfo using "$CUDA_INSTALL_PATH/bin/ptxas --gpu-name=sm_20 -v _ptx2_9LVsKD --output-file  /dev/null 2> _ptx_oiKhnminfo"
GPGPU-Sim PTX: Kernel '_Z11kmeansPointPfiiiPiS_S_S0_' : regs=15, lmem=0, smem=0, cmem=88
GPGPU-Sim PTX: Kernel '_Z14invert_mappingPfS_ii' : regs=10, lmem=0, smem=0, cmem=56
GPGPU-Sim PTX: removing ptxinfo using "rm -f _ptx_oiKhnm _ptx2_9LVsKD _ptx_oiKhnminfo"
GPGPU-Sim PTX: loading globals with explicit initializers... 
GPGPU-Sim PTX: finished loading globals (0 bytes total).
GPGPU-Sim PTX: loading constants with explicit initializers...  done.
GPGPU-Sim PTX: __cudaRegisterFunction _Z14invert_mappingPfS_ii : hostFun 0x0x402a98, fat_cubin_handle = 1
GPGPU-Sim PTX: in __cudaRegisterTexture:
GPGPU-Sim PTX:   int dim = 1
GPGPU-Sim PTX:   int norm = 0
GPGPU-Sim PTX:   int ext = 0
GPGPU-Sim PTX:   Execution warning: Not finished implementing "void __cudaRegisterTexture(void**, const textureReference*, const void**, const char*, int, int, int)"
GPGPU-Sim PTX: in __cudaRegisterTexture:
GPGPU-Sim PTX:   int dim = 1
GPGPU-Sim PTX:   int norm = 0
GPGPU-Sim PTX:   int ext = 0
GPGPU-Sim PTX:   Execution warning: Not finished implementing "void __cudaRegisterTexture(void**, const textureReference*, const void**, const char*, int, int, int)"
GPGPU-Sim PTX: in __cudaRegisterTexture:
GPGPU-Sim PTX:   int dim = 1
GPGPU-Sim PTX:   int norm = 0
GPGPU-Sim PTX:   int ext = 0
GPGPU-Sim PTX:   Execution warning: Not finished implementing "void __cudaRegisterTexture(void**, const textureReference*, const void**, const char*, int, int, int)"

I/O completed

Number of objects: 28672
Number of features: 138

GPGPU-Sim PTX: cudaLaunch for 0x0x402c28 (mode=performance simulation) on stream 0
GPGPU-Sim PTX: pushing kernel '_Z11kmeansPointPfiiiPiS_S_S0_' to stream 0, gridDim= (11,11,1) blockDim = (256,1,1) 
kernel '_Z11kmeansPointPfiiiPiS_S_S0_' transfer to GPU hardware scheduler
GPGPU-Sim uArch: Shader 1 bind to kernel 1 '_Z11kmeansPointPfiiiPiS_S_S0_'
GPGPU-Sim uArch: CTA/core = 6, limited by: threads
GPGPU-Sim uArch: core:  1, cta: 0 initialized @(1,0)
GPGPU-Sim uArch: Shader 2 bind to kernel 1 '_Z11kmeansPointPfiiiPiS_S_S0_'
GPGPU-Sim uArch: core:  2, cta: 0 initialized @(1,0)
GPGPU-Sim uArch: Shader 3 bind to kernel 1 '_Z11kmeansPointPfiiiPiS_S_S0_'
GPGPU-Sim uArch: core:  3, cta: 0 initialized @(1,0)
GPGPU-Sim uArch: Shader 4 bind to kernel 1 '_Z11kmeansPointPfiiiPiS_S_S0_'
GPGPU-Sim uArch: core:  4, cta: 0 initialized @(1,0)
GPGPU-Sim uArch: Shader 5 bind to kernel 1 '_Z11kmeansPointPfiiiPiS_S_S0_'
GPGPU-Sim uArch: core:  5, cta: 0 initialized @(1,0)
GPGPU-Sim uArch: Shader 6 bind to kernel 1 '_Z11kmeansPointPfiiiPiS_S_S0_'
GPGPU-Sim uArch: core:  6, cta: 0 initialized @(1,0)
GPGPU-Sim uArch: Shader 7 bind to kernel 1 '_Z11kmeansPointPfiiiPiS_S_S0_'
GPGPU-Sim uArch: core:  7, cta: 0 initialized @(1,0)
GPGPU-Sim uArch: Shader 8 bind to kernel 1 '_Z11kmeansPointPfiiiPiS_S_S0_'
GPGPU-Sim uArch: core:  8, cta: 0 initialized @(1,0)
GPGPU-Sim uArch: Shader 9 bind to kernel 1 '_Z11kmeansPointPfiiiPiS_S_S0_'
GPGPU-Sim uArch: core:  9, cta: 0 initialized @(1,0)
GPGPU-Sim uArch: Shader 10 bind to kernel 1 '_Z11kmeansPointPfiiiPiS_S_S0_'
GPGPU-Sim uArch: core: 10, cta: 0 initialized @(1,0)
GPGPU-Sim uArch: Shader 11 bind to kernel 1 '_Z11kmeansPointPfiiiPiS_S_S0_'
GPGPU-Sim uArch: core: 11, cta: 0 initialized @(1,0)
GPGPU-Sim uArch: Shader 12 bind to kernel 1 '_Z11kmeansPointPfiiiPiS_S_S0_'
GPGPU-Sim uArch: core: 12, cta: 0 initialized @(1,0)
GPGPU-Sim uArch: Shader 13 bind to kernel 1 '_Z11kmeansPointPfiiiPiS_S_S0_'
GPGPU-Sim uArch: core: 13, cta: 0 initialized @(1,0)
GPGPU-Sim uArch: Shader 14 bind to kernel 1 '_Z11kmeansPointPfiiiPiS_S_S0_'
GPGPU-Sim uArch: core: 14, cta: 0 initialized @(1,0)
GPGPU-Sim uArch: Shader 0 bind to kernel 1 '_Z11kmeansPointPfiiiPiS_S_S0_'
GPGPU-Sim uArch: core:  0, cta: 0 initialized @(1,0)
GPGPU-Sim uArch: core:  1, cta: 1 initialized @(2,0)
GPGPU-Sim uArch: core:  2, cta: 1 initialized @(2,0)
GPGPU-Sim uArch: core:  3, cta: 1 initialized @(2,0)
GPGPU-Sim uArch: core:  4, cta: 1 initialized @(2,0)
GPGPU-Sim uArch: core:  5, cta: 1 initialized @(2,0)
GPGPU-Sim uArch: core:  6, cta: 1 initialized @(2,0)
GPGPU-Sim uArch: core:  7, cta: 1 initialized @(2,0)
GPGPU-Sim uArch: core:  8, cta: 1 initialized @(2,0)
GPGPU-Sim uArch: core:  9, cta: 1 initialized @(2,0)
GPGPU-Sim uArch: core: 10, cta: 1 initialized @(2,0)
GPGPU-Sim uArch: core: 11, cta: 1 initialized @(2,0)
GPGPU-Sim uArch: core: 12, cta: 1 initialized @(2,0)
GPGPU-Sim uArch: core: 13, cta: 1 initialized @(2,0)
GPGPU-Sim uArch: core: 14, cta: 1 initialized @(2,0)
GPGPU-Sim uArch: core:  0, cta: 1 initialized @(2,0)
GPGPU-Sim uArch: core:  1, cta: 2 initialized @(3,0)
GPGPU-Sim uArch: core:  2, cta: 2 initialized @(3,0)
GPGPU-Sim uArch: core:  3, cta: 2 initialized @(3,0)
GPGPU-Sim uArch: core:  4, cta: 2 initialized @(3,0)
GPGPU-Sim uArch: core:  5, cta: 2 initialized @(3,0)
GPGPU-Sim uArch: core:  6, cta: 2 initialized @(3,0)
GPGPU-Sim uArch: core:  7, cta: 2 initialized @(3,0)
GPGPU-Sim uArch: core:  8, cta: 2 initialized @(3,0)
GPGPU-Sim uArch: core:  9, cta: 2 initialized @(3,0)
GPGPU-Sim uArch: core: 10, cta: 2 initialized @(3,0)
GPGPU-Sim uArch: core: 11, cta: 2 initialized @(3,0)
GPGPU-Sim uArch: core: 12, cta: 2 initialized @(3,0)
GPGPU-Sim uArch: core: 13, cta: 2 initialized @(3,0)
GPGPU-Sim uArch: core: 14, cta: 2 initialized @(3,0)
GPGPU-Sim uArch: core:  0, cta: 2 initialized @(3,0)
GPGPU-Sim uArch: core:  1, cta: 3 initialized @(4,0)
GPGPU-Sim uArch: core:  2, cta: 3 initialized @(4,0)
GPGPU-Sim uArch: core:  3, cta: 3 initialized @(4,0)
GPGPU-Sim uArch: core:  4, cta: 3 initialized @(4,0)
GPGPU-Sim uArch: core:  5, cta: 3 initialized @(4,0)
GPGPU-Sim uArch: core:  6, cta: 3 initialized @(4,0)
GPGPU-Sim uArch: core:  7, cta: 3 initialized @(4,0)
GPGPU-Sim uArch: core:  8, cta: 3 initialized @(4,0)
GPGPU-Sim uArch: core:  9, cta: 3 initialized @(4,0)
GPGPU-Sim uArch: core: 10, cta: 3 initialized @(4,0)
GPGPU-Sim uArch: core: 11, cta: 3 initialized @(4,0)
GPGPU-Sim uArch: core: 12, cta: 3 initialized @(4,0)
GPGPU-Sim uArch: core: 13, cta: 3 initialized @(4,0)
GPGPU-Sim uArch: core: 14, cta: 3 initialized @(4,0)
GPGPU-Sim uArch: core:  0, cta: 3 initialized @(4,0)
GPGPU-Sim uArch: core:  1, cta: 4 initialized @(5,0)
GPGPU-Sim uArch: core:  2, cta: 4 initialized @(5,0)
GPGPU-Sim uArch: core:  3, cta: 4 initialized @(5,0)
GPGPU-Sim uArch: core:  4, cta: 4 initialized @(5,0)
GPGPU-Sim uArch: core:  5, cta: 4 initialized @(5,0)
GPGPU-Sim uArch: core:  6, cta: 4 initialized @(5,0)
GPGPU-Sim uArch: core:  7, cta: 4 initialized @(5,0)
GPGPU-Sim uArch: core:  8, cta: 4 initialized @(5,0)
GPGPU-Sim uArch: core:  9, cta: 4 initialized @(5,0)
GPGPU-Sim uArch: core: 10, cta: 4 initialized @(5,0)
GPGPU-Sim uArch: core: 11, cta: 4 initialized @(5,0)
GPGPU-Sim uArch: core: 12, cta: 4 initialized @(5,0)
GPGPU-Sim uArch: core: 13, cta: 4 initialized @(5,0)
GPGPU-Sim uArch: core: 14, cta: 4 initialized @(5,0)
GPGPU-Sim uArch: core:  0, cta: 4 initialized @(5,0)
GPGPU-Sim uArch: core:  1, cta: 5 initialized @(6,0)
GPGPU-Sim uArch: core:  2, cta: 5 initialized @(6,0)
GPGPU-Sim uArch: core:  3, cta: 5 initialized @(6,0)
GPGPU-Sim uArch: core:  4, cta: 5 initialized @(6,0)
GPGPU-Sim uArch: core:  5, cta: 5 initialized @(6,0)
GPGPU-Sim uArch: core:  6, cta: 5 initialized @(6,0)
GPGPU-Sim uArch: core:  7, cta: 5 initialized @(6,0)
GPGPU-Sim uArch: core:  8, cta: 5 initialized @(6,0)
GPGPU-Sim uArch: core:  9, cta: 5 initialized @(6,0)
GPGPU-Sim uArch: core: 10, cta: 5 initialized @(6,0)
GPGPU-Sim uArch: core: 11, cta: 5 initialized @(6,0)
GPGPU-Sim uArch: core: 12, cta: 5 initialized @(6,0)
GPGPU-Sim uArch: core: 13, cta: 5 initialized @(6,0)
GPGPU-Sim uArch: core: 14, cta: 5 initialized @(6,0)
GPGPU-Sim uArch: core:  0, cta: 5 initialized @(6,0)
GPGPU-Sim PTX: 100000 instructions simulated : ctaid=(7,7,0) tid=(159,0,0)
GPGPU-Sim uArch: cycles simulated: 500  inst.: 147456 (ipc=294.9) sim_rate=36864 (inst/sec) elapsed = 0:0:00:04 / Tue Apr 16 16:53:35 2019
GPGPU-Sim PTX: 200000 instructions simulated : ctaid=(2,2,0) tid=(223,0,0)
GPGPU-Sim PTX: 300000 instructions simulated : ctaid=(3,5,0) tid=(255,0,0)
GPGPU-Sim uArch: cycles simulated: 1000  inst.: 299520 (ipc=299.5) sim_rate=59904 (inst/sec) elapsed = 0:0:00:05 / Tue Apr 16 16:53:36 2019
GPGPU-Sim PTX: 400000 instructions simulated : ctaid=(9,7,0) tid=(191,0,0)
GPGPU-Sim PTX: 500000 instructions simulated : ctaid=(9,4,0) tid=(191,0,0)
GPGPU-Sim PTX: 600000 instructions simulated : ctaid=(3,5,0) tid=(223,0,0)
GPGPU-Sim uArch: cycles simulated: 1500  inst.: 615616 (ipc=410.4) sim_rate=87945 (inst/sec) elapsed = 0:0:00:07 / Tue Apr 16 16:53:38 2019
GPGPU-Sim PTX: 700000 instructions simulated : ctaid=(1,4,0) tid=(159,0,0)
GPGPU-Sim PTX: 800000 instructions simulated : ctaid=(4,5,0) tid=(31,0,0)
GPGPU-Sim PTX: 900000 instructions simulated : ctaid=(2,1,0) tid=(191,0,0)
GPGPU-Sim uArch: cycles simulated: 2000  inst.: 850304 (ipc=425.2) sim_rate=94478 (inst/sec) elapsed = 0:0:00:09 / Tue Apr 16 16:53:40 2019
GPGPU-Sim uArch: cycles simulated: 2500  inst.: 851488 (ipc=340.6) sim_rate=77408 (inst/sec) elapsed = 0:0:00:11 / Tue Apr 16 16:53:42 2019
GPGPU-Sim uArch: cycles simulated: 3000  inst.: 854368 (ipc=284.8) sim_rate=71197 (inst/sec) elapsed = 0:0:00:12 / Tue Apr 16 16:53:43 2019
GPGPU-Sim uArch: cycles simulated: 3500  inst.: 857024 (ipc=244.9) sim_rate=65924 (inst/sec) elapsed = 0:0:00:13 / Tue Apr 16 16:53:44 2019
GPGPU-Sim uArch: cycles simulated: 4000  inst.: 865024 (ipc=216.3) sim_rate=61787 (inst/sec) elapsed = 0:0:00:14 / Tue Apr 16 16:53:45 2019
GPGPU-Sim uArch: cycles simulated: 5000  inst.: 887872 (ipc=177.6) sim_rate=59191 (inst/sec) elapsed = 0:0:00:15 / Tue Apr 16 16:53:46 2019
GPGPU-Sim uArch: cycles simulated: 5500  inst.: 899648 (ipc=163.6) sim_rate=56228 (inst/sec) elapsed = 0:0:00:16 / Tue Apr 16 16:53:47 2019
GPGPU-Sim uArch: cycles simulated: 6000  inst.: 912544 (ipc=152.1) sim_rate=53679 (inst/sec) elapsed = 0:0:00:17 / Tue Apr 16 16:53:48 2019
GPGPU-Sim PTX: 1000000 instructions simulated : ctaid=(10,0,0) tid=(31,0,0)
GPGPU-Sim uArch: cycles simulated: 6500  inst.: 928064 (ipc=142.8) sim_rate=51559 (inst/sec) elapsed = 0:0:00:18 / Tue Apr 16 16:53:49 2019
GPGPU-Sim uArch: cycles simulated: 7000  inst.: 952960 (ipc=136.1) sim_rate=50155 (inst/sec) elapsed = 0:0:00:19 / Tue Apr 16 16:53:50 2019
GPGPU-Sim uArch: cycles simulated: 7500  inst.: 980896 (ipc=130.8) sim_rate=49044 (inst/sec) elapsed = 0:0:00:20 / Tue Apr 16 16:53:51 2019
GPGPU-Sim uArch: cycles simulated: 8000  inst.: 1007424 (ipc=125.9) sim_rate=47972 (inst/sec) elapsed = 0:0:00:21 / Tue Apr 16 16:53:52 2019
GPGPU-Sim PTX: 1100000 instructions simulated : ctaid=(7,0,0) tid=(63,0,0)
GPGPU-Sim uArch: cycles simulated: 8500  inst.: 1041472 (ipc=122.5) sim_rate=47339 (inst/sec) elapsed = 0:0:00:22 / Tue Apr 16 16:53:53 2019
GPGPU-Sim uArch: cycles simulated: 9000  inst.: 1080160 (ipc=120.0) sim_rate=46963 (inst/sec) elapsed = 0:0:00:23 / Tue Apr 16 16:53:54 2019
GPGPU-Sim uArch: cycles simulated: 9500  inst.: 1125152 (ipc=118.4) sim_rate=46881 (inst/sec) elapsed = 0:0:00:24 / Tue Apr 16 16:53:55 2019
GPGPU-Sim PTX: 1200000 instructions simulated : ctaid=(1,0,0) tid=(191,0,0)
GPGPU-Sim uArch: cycles simulated: 10000  inst.: 1176128 (ipc=117.6) sim_rate=47045 (inst/sec) elapsed = 0:0:00:25 / Tue Apr 16 16:53:56 2019
GPGPU-Sim uArch: cycles simulated: 10500  inst.: 1216704 (ipc=115.9) sim_rate=46796 (inst/sec) elapsed = 0:0:00:26 / Tue Apr 16 16:53:57 2019
GPGPU-Sim PTX: 1300000 instructions simulated : ctaid=(3,1,0) tid=(191,0,0)
GPGPU-Sim uArch: cycles simulated: 11000  inst.: 1259296 (ipc=114.5) sim_rate=44974 (inst/sec) elapsed = 0:0:00:28 / Tue Apr 16 16:53:59 2019
GPGPU-Sim uArch: cycles simulated: 11500  inst.: 1288512 (ipc=112.0) sim_rate=44431 (inst/sec) elapsed = 0:0:00:29 / Tue Apr 16 16:54:00 2019
GPGPU-Sim PTX: 1400000 instructions simulated : ctaid=(0,0,0) tid=(127,0,0)
GPGPU-Sim uArch: cycles simulated: 12000  inst.: 1324480 (ipc=110.4) sim_rate=41390 (inst/sec) elapsed = 0:0:00:32 / Tue Apr 16 16:54:03 2019
GPGPU-Sim uArch: cycles simulated: 12500  inst.: 1364224 (ipc=109.1) sim_rate=41340 (inst/sec) elapsed = 0:0:00:33 / Tue Apr 16 16:54:04 2019
GPGPU-Sim uArch: cycles simulated: 13000  inst.: 1399488 (ipc=107.7) sim_rate=41161 (inst/sec) elapsed = 0:0:00:34 / Tue Apr 16 16:54:05 2019
GPGPU-Sim PTX: 1500000 instructions simulated : ctaid=(0,0,0) tid=(95,0,0)
GPGPU-Sim uArch: cycles simulated: 13500  inst.: 1432960 (ipc=106.1) sim_rate=39804 (inst/sec) elapsed = 0:0:00:36 / Tue Apr 16 16:54:07 2019
GPGPU-Sim uArch: cycles simulated: 14000  inst.: 1474464 (ipc=105.3) sim_rate=39850 (inst/sec) elapsed = 0:0:00:37 / Tue Apr 16 16:54:08 2019
GPGPU-Sim uArch: cycles simulated: 14500  inst.: 1515520 (ipc=104.5) sim_rate=39882 (inst/sec) elapsed = 0:0:00:38 / Tue Apr 16 16:54:09 2019
GPGPU-Sim PTX: 1600000 instructions simulated : ctaid=(3,1,0) tid=(223,0,0)
GPGPU-Sim uArch: cycles simulated: 15000  inst.: 1556544 (ipc=103.8) sim_rate=39911 (inst/sec) elapsed = 0:0:00:39 / Tue Apr 16 16:54:10 2019
GPGPU-Sim PTX: 1700000 instructions simulated : ctaid=(5,1,0) tid=(31,0,0)
GPGPU-Sim uArch: cycles simulated: 16000  inst.: 1649728 (ipc=103.1) sim_rate=40237 (inst/sec) elapsed = 0:0:00:41 / Tue Apr 16 16:54:12 2019
GPGPU-Sim uArch: cycles simulated: 16500  inst.: 1696448 (ipc=102.8) sim_rate=40391 (inst/sec) elapsed = 0:0:00:42 / Tue Apr 16 16:54:13 2019
GPGPU-Sim PTX: 1800000 instructions simulated : ctaid=(3,3,0) tid=(31,0,0)
GPGPU-Sim uArch: cycles simulated: 17000  inst.: 1741664 (ipc=102.5) sim_rate=40503 (inst/sec) elapsed = 0:0:00:43 / Tue Apr 16 16:54:14 2019
GPGPU-Sim uArch: cycles simulated: 17500  inst.: 1789856 (ipc=102.3) sim_rate=39774 (inst/sec) elapsed = 0:0:00:45 / Tue Apr 16 16:54:16 2019
GPGPU-Sim PTX: 1900000 instructions simulated : ctaid=(10,1,0) tid=(159,0,0)
GPGPU-Sim uArch: cycles simulated: 18000  inst.: 1833984 (ipc=101.9) sim_rate=39020 (inst/sec) elapsed = 0:0:00:47 / Tue Apr 16 16:54:18 2019
GPGPU-Sim uArch: cycles simulated: 18500  inst.: 1880864 (ipc=101.7) sim_rate=39184 (inst/sec) elapsed = 0:0:00:48 / Tue Apr 16 16:54:19 2019
GPGPU-Sim uArch: cycles simulated: 19000  inst.: 1917376 (ipc=100.9) sim_rate=39130 (inst/sec) elapsed = 0:0:00:49 / Tue Apr 16 16:54:20 2019
GPGPU-Sim PTX: 2000000 instructions simulated : ctaid=(0,0,0) tid=(95,0,0)
GPGPU-Sim uArch: cycles simulated: 19500  inst.: 1952768 (ipc=100.1) sim_rate=39055 (inst/sec) elapsed = 0:0:00:50 / Tue Apr 16 16:54:21 2019
GPGPU-Sim uArch: cycles simulated: 20000  inst.: 1992416 (ipc=99.6) sim_rate=38315 (inst/sec) elapsed = 0:0:00:52 / Tue Apr 16 16:54:23 2019
GPGPU-Sim PTX: 2100000 instructions simulated : ctaid=(2,1,0) tid=(95,0,0)
GPGPU-Sim uArch: cycles simulated: 20500  inst.: 2037216 (ipc=99.4) sim_rate=38438 (inst/sec) elapsed = 0:0:00:53 / Tue Apr 16 16:54:24 2019
GPGPU-Sim uArch: cycles simulated: 21000  inst.: 2078176 (ipc=99.0) sim_rate=38484 (inst/sec) elapsed = 0:0:00:54 / Tue Apr 16 16:54:25 2019
GPGPU-Sim uArch: cycles simulated: 21500  inst.: 2117984 (ipc=98.5) sim_rate=38508 (inst/sec) elapsed = 0:0:00:55 / Tue Apr 16 16:54:26 2019
GPGPU-Sim PTX: 2200000 instructions simulated : ctaid=(0,1,0) tid=(127,0,0)
GPGPU-Sim uArch: cycles simulated: 22000  inst.: 2152064 (ipc=97.8) sim_rate=38429 (inst/sec) elapsed = 0:0:00:56 / Tue Apr 16 16:54:27 2019
GPGPU-Sim uArch: cycles simulated: 22500  inst.: 2187424 (ipc=97.2) sim_rate=38375 (inst/sec) elapsed = 0:0:00:57 / Tue Apr 16 16:54:28 2019
GPGPU-Sim uArch: cycles simulated: 23000  inst.: 2221440 (ipc=96.6) sim_rate=38300 (inst/sec) elapsed = 0:0:00:58 / Tue Apr 16 16:54:29 2019
GPGPU-Sim PTX: 2300000 instructions simulated : ctaid=(1,0,0) tid=(31,0,0)
GPGPU-Sim uArch: cycles simulated: 23500  inst.: 2260800 (ipc=96.2) sim_rate=38318 (inst/sec) elapsed = 0:0:00:59 / Tue Apr 16 16:54:30 2019
GPGPU-Sim uArch: cycles simulated: 24000  inst.: 2305312 (ipc=96.1) sim_rate=38421 (inst/sec) elapsed = 0:0:01:00 / Tue Apr 16 16:54:31 2019
GPGPU-Sim PTX: 2400000 instructions simulated : ctaid=(2,2,0) tid=(159,0,0)
GPGPU-Sim uArch: cycles simulated: 24500  inst.: 2340864 (ipc=95.5) sim_rate=38374 (inst/sec) elapsed = 0:0:01:01 / Tue Apr 16 16:54:32 2019
GPGPU-Sim uArch: cycles simulated: 25000  inst.: 2380224 (ipc=95.2) sim_rate=38390 (inst/sec) elapsed = 0:0:01:02 / Tue Apr 16 16:54:33 2019
GPGPU-Sim uArch: cycles simulated: 25500  inst.: 2424544 (ipc=95.1) sim_rate=38484 (inst/sec) elapsed = 0:0:01:03 / Tue Apr 16 16:54:34 2019
GPGPU-Sim PTX: 2500000 instructions simulated : ctaid=(8,0,0) tid=(95,0,0)
GPGPU-Sim uArch: cycles simulated: 26000  inst.: 2464864 (ipc=94.8) sim_rate=38513 (inst/sec) elapsed = 0:0:01:04 / Tue Apr 16 16:54:35 2019
GPGPU-Sim uArch: cycles simulated: 26500  inst.: 2505504 (ipc=94.5) sim_rate=37962 (inst/sec) elapsed = 0:0:01:06 / Tue Apr 16 16:54:37 2019
GPGPU-Sim PTX: 2600000 instructions simulated : ctaid=(0,0,0) tid=(63,0,0)
GPGPU-Sim uArch: cycles simulated: 27000  inst.: 2549312 (ipc=94.4) sim_rate=38049 (inst/sec) elapsed = 0:0:01:07 / Tue Apr 16 16:54:38 2019
GPGPU-Sim uArch: cycles simulated: 27500  inst.: 2594112 (ipc=94.3) sim_rate=38148 (inst/sec) elapsed = 0:0:01:08 / Tue Apr 16 16:54:39 2019
GPGPU-Sim PTX: 2700000 instructions simulated : ctaid=(8,1,0) tid=(95,0,0)
GPGPU-Sim uArch: cycles simulated: 28000  inst.: 2639040 (ipc=94.3) sim_rate=37700 (inst/sec) elapsed = 0:0:01:10 / Tue Apr 16 16:54:41 2019
GPGPU-Sim uArch: cycles simulated: 28500  inst.: 2682048 (ipc=94.1) sim_rate=37775 (inst/sec) elapsed = 0:0:01:11 / Tue Apr 16 16:54:42 2019
GPGPU-Sim PTX: 2800000 instructions simulated : ctaid=(1,1,0) tid=(159,0,0)
GPGPU-Sim uArch: cycles simulated: 29000  inst.: 2731136 (ipc=94.2) sim_rate=37932 (inst/sec) elapsed = 0:0:01:12 / Tue Apr 16 16:54:43 2019
GPGPU-Sim uArch: cycles simulated: 30000  inst.: 2816832 (ipc=93.9) sim_rate=38586 (inst/sec) elapsed = 0:0:01:13 / Tue Apr 16 16:54:44 2019
GPGPU-Sim PTX: 2900000 instructions simulated : ctaid=(10,3,0) tid=(223,0,0)
GPGPU-Sim uArch: cycles simulated: 30500  inst.: 2861152 (ipc=93.8) sim_rate=38148 (inst/sec) elapsed = 0:0:01:15 / Tue Apr 16 16:54:46 2019
GPGPU-Sim uArch: cycles simulated: 31000  inst.: 2903520 (ipc=93.7) sim_rate=38204 (inst/sec) elapsed = 0:0:01:16 / Tue Apr 16 16:54:47 2019
GPGPU-Sim PTX: 3000000 instructions simulated : ctaid=(8,0,0) tid=(223,0,0)
GPGPU-Sim uArch: cycles simulated: 31500  inst.: 2948672 (ipc=93.6) sim_rate=38294 (inst/sec) elapsed = 0:0:01:17 / Tue Apr 16 16:54:48 2019
GPGPU-Sim PTX: 3100000 instructions simulated : ctaid=(4,1,0) tid=(95,0,0)
GPGPU-Sim uArch: cycles simulated: 32500  inst.: 3045856 (ipc=93.7) sim_rate=39049 (inst/sec) elapsed = 0:0:01:18 / Tue Apr 16 16:54:49 2019
GPGPU-Sim uArch: cycles simulated: 33000  inst.: 3084896 (ipc=93.5) sim_rate=38561 (inst/sec) elapsed = 0:0:01:20 / Tue Apr 16 16:54:51 2019
GPGPU-Sim PTX: 3200000 instructions simulated : ctaid=(6,1,0) tid=(223,0,0)
GPGPU-Sim uArch: cycles simulated: 33500  inst.: 3133536 (ipc=93.5) sim_rate=38213 (inst/sec) elapsed = 0:0:01:22 / Tue Apr 16 16:54:53 2019
GPGPU-Sim uArch: cycles simulated: 34000  inst.: 3169600 (ipc=93.2) sim_rate=38187 (inst/sec) elapsed = 0:0:01:23 / Tue Apr 16 16:54:54 2019
GPGPU-Sim uArch: cycles simulated: 34500  inst.: 3217216 (ipc=93.3) sim_rate=38300 (inst/sec) elapsed = 0:0:01:24 / Tue Apr 16 16:54:55 2019
GPGPU-Sim PTX: 3300000 instructions simulated : ctaid=(0,1,0) tid=(127,0,0)
GPGPU-Sim uArch: cycles simulated: 35000  inst.: 3266624 (ipc=93.3) sim_rate=38430 (inst/sec) elapsed = 0:0:01:25 / Tue Apr 16 16:54:56 2019
GPGPU-Sim uArch: cycles simulated: 35500  inst.: 3304928 (ipc=93.1) sim_rate=38429 (inst/sec) elapsed = 0:0:01:26 / Tue Apr 16 16:54:57 2019
GPGPU-Sim PTX: 3400000 instructions simulated : ctaid=(6,3,0) tid=(31,0,0)
GPGPU-Sim uArch: cycles simulated: 36000  inst.: 3347744 (ipc=93.0) sim_rate=38479 (inst/sec) elapsed = 0:0:01:27 / Tue Apr 16 16:54:58 2019
GPGPU-Sim uArch: cycles simulated: 36500  inst.: 3391744 (ipc=92.9) sim_rate=38542 (inst/sec) elapsed = 0:0:01:28 / Tue Apr 16 16:54:59 2019
GPGPU-Sim PTX: 3500000 instructions simulated : ctaid=(1,0,0) tid=(127,0,0)
GPGPU-Sim uArch: cycles simulated: 37000  inst.: 3433888 (ipc=92.8) sim_rate=38583 (inst/sec) elapsed = 0:0:01:29 / Tue Apr 16 16:55:00 2019
GPGPU-Sim uArch: cycles simulated: 37500  inst.: 3471456 (ipc=92.6) sim_rate=38571 (inst/sec) elapsed = 0:0:01:30 / Tue Apr 16 16:55:01 2019
GPGPU-Sim uArch: cycles simulated: 38000  inst.: 3510464 (ipc=92.4) sim_rate=37746 (inst/sec) elapsed = 0:0:01:33 / Tue Apr 16 16:55:04 2019
GPGPU-Sim PTX: 3600000 instructions simulated : ctaid=(5,3,0) tid=(31,0,0)
GPGPU-Sim uArch: cycles simulated: 38500  inst.: 3548768 (ipc=92.2) sim_rate=37752 (inst/sec) elapsed = 0:0:01:34 / Tue Apr 16 16:55:05 2019
GPGPU-Sim uArch: cycles simulated: 39000  inst.: 3591456 (ipc=92.1) sim_rate=37804 (inst/sec) elapsed = 0:0:01:35 / Tue Apr 16 16:55:06 2019
GPGPU-Sim PTX: 3700000 instructions simulated : ctaid=(1,1,0) tid=(95,0,0)
GPGPU-Sim uArch: cycles simulated: 39500  inst.: 3627136 (ipc=91.8) sim_rate=37782 (inst/sec) elapsed = 0:0:01:36 / Tue Apr 16 16:55:07 2019
GPGPU-Sim uArch: cycles simulated: 40000  inst.: 3670624 (ipc=91.8) sim_rate=37455 (inst/sec) elapsed = 0:0:01:38 / Tue Apr 16 16:55:09 2019
GPGPU-Sim uArch: cycles simulated: 40500  inst.: 3713984 (ipc=91.7) sim_rate=37514 (inst/sec) elapsed = 0:0:01:39 / Tue Apr 16 16:55:10 2019
GPGPU-Sim PTX: 3800000 instructions simulated : ctaid=(3,1,0) tid=(31,0,0)
GPGPU-Sim uArch: cycles simulated: 41000  inst.: 3753152 (ipc=91.5) sim_rate=37159 (inst/sec) elapsed = 0:0:01:41 / Tue Apr 16 16:55:12 2019
GPGPU-Sim PTX: 3900000 instructions simulated : ctaid=(0,1,0) tid=(159,0,0)
GPGPU-Sim uArch: cycles simulated: 42000  inst.: 3828512 (ipc=91.2) sim_rate=37170 (inst/sec) elapsed = 0:0:01:43 / Tue Apr 16 16:55:14 2019
GPGPU-Sim uArch: cycles simulated: 42500  inst.: 3870688 (ipc=91.1) sim_rate=37218 (inst/sec) elapsed = 0:0:01:44 / Tue Apr 16 16:55:15 2019
GPGPU-Sim uArch: cycles simulated: 43000  inst.: 3913856 (ipc=91.0) sim_rate=37274 (inst/sec) elapsed = 0:0:01:45 / Tue Apr 16 16:55:16 2019
GPGPU-Sim PTX: 4000000 instructions simulated : ctaid=(6,0,0) tid=(159,0,0)
GPGPU-Sim uArch: cycles simulated: 43500  inst.: 3958848 (ipc=91.0) sim_rate=37347 (inst/sec) elapsed = 0:0:01:46 / Tue Apr 16 16:55:17 2019
GPGPU-Sim uArch: cycles simulated: 44000  inst.: 3997248 (ipc=90.8) sim_rate=37357 (inst/sec) elapsed = 0:0:01:47 / Tue Apr 16 16:55:18 2019
GPGPU-Sim PTX: 4100000 instructions simulated : ctaid=(8,0,0) tid=(127,0,0)
GPGPU-Sim uArch: cycles simulated: 44500  inst.: 4030368 (ipc=90.6) sim_rate=37318 (inst/sec) elapsed = 0:0:01:48 / Tue Apr 16 16:55:19 2019
GPGPU-Sim uArch: cycles simulated: 45000  inst.: 4065760 (ipc=90.4) sim_rate=37300 (inst/sec) elapsed = 0:0:01:49 / Tue Apr 16 16:55:20 2019
GPGPU-Sim uArch: cycles simulated: 45500  inst.: 4107072 (ipc=90.3) sim_rate=37337 (inst/sec) elapsed = 0:0:01:50 / Tue Apr 16 16:55:21 2019
GPGPU-Sim PTX: 4200000 instructions simulated : ctaid=(0,1,0) tid=(159,0,0)
GPGPU-Sim uArch: cycles simulated: 46000  inst.: 4147712 (ipc=90.2) sim_rate=37033 (inst/sec) elapsed = 0:0:01:52 / Tue Apr 16 16:55:23 2019
GPGPU-Sim uArch: cycles simulated: 46500  inst.: 4189920 (ipc=90.1) sim_rate=37078 (inst/sec) elapsed = 0:0:01:53 / Tue Apr 16 16:55:24 2019
GPGPU-Sim PTX: 4300000 instructions simulated : ctaid=(2,4,0) tid=(31,0,0)
GPGPU-Sim uArch: cycles simulated: 47000  inst.: 4225600 (ipc=89.9) sim_rate=36744 (inst/sec) elapsed = 0:0:01:55 / Tue Apr 16 16:55:26 2019
GPGPU-Sim uArch: cycles simulated: 47500  inst.: 4261472 (ipc=89.7) sim_rate=36736 (inst/sec) elapsed = 0:0:01:56 / Tue Apr 16 16:55:27 2019
GPGPU-Sim uArch: cycles simulated: 48000  inst.: 4298752 (ipc=89.6) sim_rate=36741 (inst/sec) elapsed = 0:0:01:57 / Tue Apr 16 16:55:28 2019
GPGPU-Sim PTX: 4400000 instructions simulated : ctaid=(1,0,0) tid=(223,0,0)
GPGPU-Sim uArch: cycles simulated: 48500  inst.: 4339328 (ipc=89.5) sim_rate=36773 (inst/sec) elapsed = 0:0:01:58 / Tue Apr 16 16:55:29 2019
GPGPU-Sim uArch: cycles simulated: 49000  inst.: 4379520 (ipc=89.4) sim_rate=36802 (inst/sec) elapsed = 0:0:01:59 / Tue Apr 16 16:55:30 2019
GPGPU-Sim PTX: 4500000 instructions simulated : ctaid=(3,0,0) tid=(31,0,0)
GPGPU-Sim uArch: cycles simulated: 50000  inst.: 4455360 (ipc=89.1) sim_rate=37128 (inst/sec) elapsed = 0:0:02:00 / Tue Apr 16 16:55:31 2019
GPGPU-Sim uArch: cycles simulated: 50500  inst.: 4496864 (ipc=89.0) sim_rate=37164 (inst/sec) elapsed = 0:0:02:01 / Tue Apr 16 16:55:32 2019
GPGPU-Sim PTX: 4600000 instructions simulated : ctaid=(0,1,0) tid=(31,0,0)
GPGPU-Sim uArch: cycles simulated: 51000  inst.: 4542944 (ipc=89.1) sim_rate=37237 (inst/sec) elapsed = 0:0:02:02 / Tue Apr 16 16:55:33 2019
GPGPU-Sim uArch: cycles simulated: 51500  inst.: 4587328 (ipc=89.1) sim_rate=37295 (inst/sec) elapsed = 0:0:02:03 / Tue Apr 16 16:55:34 2019
GPGPU-Sim uArch: cycles simulated: 52000  inst.: 4623168 (ipc=88.9) sim_rate=37283 (inst/sec) elapsed = 0:0:02:04 / Tue Apr 16 16:55:35 2019
GPGPU-Sim PTX: 4700000 instructions simulated : ctaid=(8,3,0) tid=(95,0,0)
GPGPU-Sim uArch: cycles simulated: 52500  inst.: 4661216 (ipc=88.8) sim_rate=37289 (inst/sec) elapsed = 0:0:02:05 / Tue Apr 16 16:55:36 2019
GPGPU-Sim uArch: cycles simulated: 53000  inst.: 4701696 (ipc=88.7) sim_rate=37315 (inst/sec) elapsed = 0:0:02:06 / Tue Apr 16 16:55:37 2019
GPGPU-Sim PTX: 4800000 instructions simulated : ctaid=(0,0,0) tid=(159,0,0)
GPGPU-Sim uArch: cycles simulated: 53500  inst.: 4746944 (ipc=88.7) sim_rate=37377 (inst/sec) elapsed = 0:0:02:07 / Tue Apr 16 16:55:38 2019
GPGPU-Sim uArch: cycles simulated: 54000  inst.: 4796384 (ipc=88.8) sim_rate=37181 (inst/sec) elapsed = 0:0:02:09 / Tue Apr 16 16:55:40 2019
GPGPU-Sim PTX: 4900000 instructions simulated : ctaid=(0,0,0) tid=(95,0,0)
GPGPU-Sim uArch: cycles simulated: 54500  inst.: 4833440 (ipc=88.7) sim_rate=37180 (inst/sec) elapsed = 0:0:02:10 / Tue Apr 16 16:55:41 2019
GPGPU-Sim uArch: cycles simulated: 55000  inst.: 4870304 (ipc=88.6) sim_rate=36896 (inst/sec) elapsed = 0:0:02:12 / Tue Apr 16 16:55:43 2019
GPGPU-Sim uArch: cycles simulated: 55500  inst.: 4905984 (ipc=88.4) sim_rate=36887 (inst/sec) elapsed = 0:0:02:13 / Tue Apr 16 16:55:44 2019
GPGPU-Sim PTX: 5000000 instructions simulated : ctaid=(7,2,0) tid=(127,0,0)
GPGPU-Sim uArch: cycles simulated: 56000  inst.: 4950560 (ipc=88.4) sim_rate=36670 (inst/sec) elapsed = 0:0:02:15 / Tue Apr 16 16:55:46 2019
GPGPU-Sim uArch: cycles simulated: 56500  inst.: 4985792 (ipc=88.2) sim_rate=36660 (inst/sec) elapsed = 0:0:02:16 / Tue Apr 16 16:55:47 2019
GPGPU-Sim PTX: 5100000 instructions simulated : ctaid=(5,0,0) tid=(159,0,0)
GPGPU-Sim uArch: cycles simulated: 57000  inst.: 5029376 (ipc=88.2) sim_rate=36710 (inst/sec) elapsed = 0:0:02:17 / Tue Apr 16 16:55:48 2019
GPGPU-Sim uArch: cycles simulated: 57500  inst.: 5066432 (ipc=88.1) sim_rate=36713 (inst/sec) elapsed = 0:0:02:18 / Tue Apr 16 16:55:49 2019
GPGPU-Sim uArch: cycles simulated: 58000  inst.: 5106848 (ipc=88.0) sim_rate=36739 (inst/sec) elapsed = 0:0:02:19 / Tue Apr 16 16:55:50 2019
GPGPU-Sim PTX: 5200000 instructions simulated : ctaid=(3,2,0) tid=(223,0,0)
GPGPU-Sim uArch: cycles simulated: 58500  inst.: 5156992 (ipc=88.2) sim_rate=36835 (inst/sec) elapsed = 0:0:02:20 / Tue Apr 16 16:55:51 2019
GPGPU-Sim PTX: 5300000 instructions simulated : ctaid=(0,4,0) tid=(159,0,0)
GPGPU-Sim uArch: cycles simulated: 59500  inst.: 5251072 (ipc=88.3) sim_rate=37241 (inst/sec) elapsed = 0:0:02:21 / Tue Apr 16 16:55:52 2019
GPGPU-Sim uArch: cycles simulated: 60000  inst.: 5298240 (ipc=88.3) sim_rate=37311 (inst/sec) elapsed = 0:0:02:22 / Tue Apr 16 16:55:53 2019
GPGPU-Sim PTX: 5400000 instructions simulated : ctaid=(4,0,0) tid=(223,0,0)
GPGPU-Sim uArch: cycles simulated: 60500  inst.: 5331936 (ipc=88.1) sim_rate=36771 (inst/sec) elapsed = 0:0:02:25 / Tue Apr 16 16:55:56 2019
GPGPU-Sim uArch: cycles simulated: 61000  inst.: 5365280 (ipc=88.0) sim_rate=36748 (inst/sec) elapsed = 0:0:02:26 / Tue Apr 16 16:55:57 2019
GPGPU-Sim uArch: cycles simulated: 61500  inst.: 5402272 (ipc=87.8) sim_rate=36750 (inst/sec) elapsed = 0:0:02:27 / Tue Apr 16 16:55:58 2019
GPGPU-Sim PTX: 5500000 instructions simulated : ctaid=(2,0,0) tid=(31,0,0)
GPGPU-Sim uArch: cycles simulated: 62000  inst.: 5445760 (ipc=87.8) sim_rate=36548 (inst/sec) elapsed = 0:0:02:29 / Tue Apr 16 16:56:00 2019
GPGPU-Sim uArch: cycles simulated: 62500  inst.: 5480864 (ipc=87.7) sim_rate=36539 (inst/sec) elapsed = 0:0:02:30 / Tue Apr 16 16:56:01 2019
GPGPU-Sim uArch: cycles simulated: 63000  inst.: 5522528 (ipc=87.7) sim_rate=36573 (inst/sec) elapsed = 0:0:02:31 / Tue Apr 16 16:56:02 2019
GPGPU-Sim PTX: 5600000 instructions simulated : ctaid=(10,2,0) tid=(223,0,0)
GPGPU-Sim uArch: cycles simulated: 63500  inst.: 5565728 (ipc=87.6) sim_rate=36616 (inst/sec) elapsed = 0:0:02:32 / Tue Apr 16 16:56:03 2019
GPGPU-Sim uArch: cycles simulated: 64000  inst.: 5603392 (ipc=87.6) sim_rate=36623 (inst/sec) elapsed = 0:0:02:33 / Tue Apr 16 16:56:04 2019
GPGPU-Sim PTX: 5700000 instructions simulated : ctaid=(3,1,0) tid=(223,0,0)
GPGPU-Sim uArch: cycles simulated: 64500  inst.: 5639040 (ipc=87.4) sim_rate=36617 (inst/sec) elapsed = 0:0:02:34 / Tue Apr 16 16:56:05 2019
GPGPU-Sim uArch: cycles simulated: 65000  inst.: 5670272 (ipc=87.2) sim_rate=36582 (inst/sec) elapsed = 0:0:02:35 / Tue Apr 16 16:56:06 2019
GPGPU-Sim uArch: cycles simulated: 65500  inst.: 5706848 (ipc=87.1) sim_rate=36582 (inst/sec) elapsed = 0:0:02:36 / Tue Apr 16 16:56:07 2019
GPGPU-Sim PTX: 5800000 instructions simulated : ctaid=(10,0,0) tid=(159,0,0)
GPGPU-Sim uArch: cycles simulated: 66000  inst.: 5741344 (ipc=87.0) sim_rate=36109 (inst/sec) elapsed = 0:0:02:39 / Tue Apr 16 16:56:10 2019
GPGPU-Sim uArch: cycles simulated: 66500  inst.: 5780480 (ipc=86.9) sim_rate=35903 (inst/sec) elapsed = 0:0:02:41 / Tue Apr 16 16:56:12 2019
GPGPU-Sim uArch: cycles simulated: 67000  inst.: 5822944 (ipc=86.9) sim_rate=35944 (inst/sec) elapsed = 0:0:02:42 / Tue Apr 16 16:56:13 2019
GPGPU-Sim PTX: 5900000 instructions simulated : ctaid=(2,2,0) tid=(31,0,0)
GPGPU-Sim uArch: cycles simulated: 67500  inst.: 5868448 (ipc=86.9) sim_rate=35783 (inst/sec) elapsed = 0:0:02:44 / Tue Apr 16 16:56:15 2019
GPGPU-Sim uArch: cycles simulated: 68000  inst.: 5911072 (ipc=86.9) sim_rate=35824 (inst/sec) elapsed = 0:0:02:45 / Tue Apr 16 16:56:16 2019
GPGPU-Sim PTX: 6000000 instructions simulated : ctaid=(0,2,0) tid=(95,0,0)
GPGPU-Sim uArch: cycles simulated: 68500  inst.: 5957056 (ipc=87.0) sim_rate=35885 (inst/sec) elapsed = 0:0:02:46 / Tue Apr 16 16:56:17 2019
GPGPU-Sim PTX: 6100000 instructions simulated : ctaid=(7,0,0) tid=(63,0,0)
GPGPU-Sim uArch: cycles simulated: 69500  inst.: 6028064 (ipc=86.7) sim_rate=36096 (inst/sec) elapsed = 0:0:02:47 / Tue Apr 16 16:56:18 2019
GPGPU-Sim uArch: cycles simulated: 70000  inst.: 6071232 (ipc=86.7) sim_rate=36138 (inst/sec) elapsed = 0:0:02:48 / Tue Apr 16 16:56:19 2019
GPGPU-Sim uArch: cycles simulated: 70500  inst.: 6109536 (ipc=86.7) sim_rate=36151 (inst/sec) elapsed = 0:0:02:49 / Tue Apr 16 16:56:20 2019
GPGPU-Sim PTX: 6200000 instructions simulated : ctaid=(2,0,0) tid=(223,0,0)
GPGPU-Sim uArch: cycles simulated: 71000  inst.: 6146400 (ipc=86.6) sim_rate=35943 (inst/sec) elapsed = 0:0:02:51 / Tue Apr 16 16:56:22 2019
GPGPU-Sim uArch: cycles simulated: 71500  inst.: 6188352 (ipc=86.6) sim_rate=35770 (inst/sec) elapsed = 0:0:02:53 / Tue Apr 16 16:56:24 2019
GPGPU-Sim PTX: 6300000 instructions simulated : ctaid=(0,4,0) tid=(223,0,0)
GPGPU-Sim uArch: cycles simulated: 72000  inst.: 6229696 (ipc=86.5) sim_rate=35802 (inst/sec) elapsed = 0:0:02:54 / Tue Apr 16 16:56:25 2019
GPGPU-Sim uArch: cycles simulated: 72500  inst.: 6273984 (ipc=86.5) sim_rate=35851 (inst/sec) elapsed = 0:0:02:55 / Tue Apr 16 16:56:26 2019
GPGPU-Sim uArch: cycles simulated: 73000  inst.: 6317440 (ipc=86.5) sim_rate=35894 (inst/sec) elapsed = 0:0:02:56 / Tue Apr 16 16:56:27 2019
GPGPU-Sim PTX: 6400000 instructions simulated : ctaid=(1,2,0) tid=(95,0,0)
GPGPU-Sim uArch: cycles simulated: 73500  inst.: 6355232 (ipc=86.5) sim_rate=35703 (inst/sec) elapsed = 0:0:02:58 / Tue Apr 16 16:56:29 2019
GPGPU-Sim uArch: cycles simulated: 74000  inst.: 6394944 (ipc=86.4) sim_rate=35725 (inst/sec) elapsed = 0:0:02:59 / Tue Apr 16 16:56:30 2019
GPGPU-Sim PTX: 6500000 instructions simulated : ctaid=(6,2,0) tid=(223,0,0)
GPGPU-Sim uArch: cycles simulated: 74500  inst.: 6434048 (ipc=86.4) sim_rate=35744 (inst/sec) elapsed = 0:0:03:00 / Tue Apr 16 16:56:31 2019
GPGPU-Sim uArch: cycles simulated: 75000  inst.: 6469888 (ipc=86.3) sim_rate=35745 (inst/sec) elapsed = 0:0:03:01 / Tue Apr 16 16:56:32 2019
GPGPU-Sim uArch: cycles simulated: 75500  inst.: 6506912 (ipc=86.2) sim_rate=35752 (inst/sec) elapsed = 0:0:03:02 / Tue Apr 16 16:56:33 2019
GPGPU-Sim PTX: 6600000 instructions simulated : ctaid=(2,1,0) tid=(95,0,0)
GPGPU-Sim uArch: cycles simulated: 76000  inst.: 6546560 (ipc=86.1) sim_rate=35773 (inst/sec) elapsed = 0:0:03:03 / Tue Apr 16 16:56:34 2019
GPGPU-Sim uArch: cycles simulated: 76500  inst.: 6585312 (ipc=86.1) sim_rate=35789 (inst/sec) elapsed = 0:0:03:04 / Tue Apr 16 16:56:35 2019
GPGPU-Sim PTX: 6700000 instructions simulated : ctaid=(2,2,0) tid=(159,0,0)
GPGPU-Sim uArch: cycles simulated: 77000  inst.: 6632000 (ipc=86.1) sim_rate=35848 (inst/sec) elapsed = 0:0:03:05 / Tue Apr 16 16:56:36 2019
GPGPU-Sim uArch: cycles simulated: 77500  inst.: 6671616 (ipc=86.1) sim_rate=35868 (inst/sec) elapsed = 0:0:03:06 / Tue Apr 16 16:56:37 2019
GPGPU-Sim uArch: cycles simulated: 78000  inst.: 6711200 (ipc=86.0) sim_rate=35888 (inst/sec) elapsed = 0:0:03:07 / Tue Apr 16 16:56:38 2019
GPGPU-Sim PTX: 6800000 instructions simulated : ctaid=(6,1,0) tid=(223,0,0)
GPGPU-Sim uArch: cycles simulated: 78500  inst.: 6753024 (ipc=86.0) sim_rate=35730 (inst/sec) elapsed = 0:0:03:09 / Tue Apr 16 16:56:40 2019
GPGPU-Sim uArch: cycles simulated: 79000  inst.: 6788608 (ipc=85.9) sim_rate=35729 (inst/sec) elapsed = 0:0:03:10 / Tue Apr 16 16:56:41 2019
GPGPU-Sim PTX: 6900000 instructions simulated : ctaid=(3,1,0) tid=(223,0,0)
GPGPU-Sim uArch: cycles simulated: 79500  inst.: 6828704 (ipc=85.9) sim_rate=35752 (inst/sec) elapsed = 0:0:03:11 / Tue Apr 16 16:56:42 2019
GPGPU-Sim uArch: cycles simulated: 80000  inst.: 6866528 (ipc=85.8) sim_rate=35577 (inst/sec) elapsed = 0:0:03:13 / Tue Apr 16 16:56:44 2019
GPGPU-Sim uArch: cycles simulated: 80500  inst.: 6906016 (ipc=85.8) sim_rate=35598 (inst/sec) elapsed = 0:0:03:14 / Tue Apr 16 16:56:45 2019
GPGPU-Sim PTX: 7000000 instructions simulated : ctaid=(10,1,0) tid=(95,0,0)
GPGPU-Sim uArch: cycles simulated: 81000  inst.: 6953792 (ipc=85.8) sim_rate=35660 (inst/sec) elapsed = 0:0:03:15 / Tue Apr 16 16:56:46 2019
GPGPU-Sim uArch: cycles simulated: 81500  inst.: 6998432 (ipc=85.9) sim_rate=35706 (inst/sec) elapsed = 0:0:03:16 / Tue Apr 16 16:56:47 2019
GPGPU-Sim PTX: 7100000 instructions simulated : ctaid=(0,1,0) tid=(63,0,0)
GPGPU-Sim uArch: cycles simulated: 82000  inst.: 7040928 (ipc=85.9) sim_rate=35740 (inst/sec) elapsed = 0:0:03:17 / Tue Apr 16 16:56:48 2019
GPGPU-Sim uArch: cycles simulated: 82500  inst.: 7081504 (ipc=85.8) sim_rate=35765 (inst/sec) elapsed = 0:0:03:18 / Tue Apr 16 16:56:49 2019
GPGPU-Sim uArch: cycles simulated: 83000  inst.: 7117888 (ipc=85.8) sim_rate=35768 (inst/sec) elapsed = 0:0:03:19 / Tue Apr 16 16:56:50 2019
GPGPU-Sim PTX: 7200000 instructions simulated : ctaid=(10,3,0) tid=(31,0,0)
GPGPU-Sim uArch: cycles simulated: 83500  inst.: 7156032 (ipc=85.7) sim_rate=35780 (inst/sec) elapsed = 0:0:03:20 / Tue Apr 16 16:56:51 2019
GPGPU-Sim PTX: 7300000 instructions simulated : ctaid=(1,0,0) tid=(159,0,0)
GPGPU-Sim uArch: cycles simulated: 84500  inst.: 7231136 (ipc=85.6) sim_rate=35975 (inst/sec) elapsed = 0:0:03:21 / Tue Apr 16 16:56:52 2019
GPGPU-Sim uArch: cycles simulated: 85000  inst.: 7272448 (ipc=85.6) sim_rate=36002 (inst/sec) elapsed = 0:0:03:22 / Tue Apr 16 16:56:53 2019
GPGPU-Sim uArch: cycles simulated: 85500  inst.: 7311296 (ipc=85.5) sim_rate=36016 (inst/sec) elapsed = 0:0:03:23 / Tue Apr 16 16:56:54 2019
GPGPU-Sim PTX: 7400000 instructions simulated : ctaid=(9,2,0) tid=(31,0,0)
GPGPU-Sim uArch: cycles simulated: 86000  inst.: 7349856 (ipc=85.5) sim_rate=36028 (inst/sec) elapsed = 0:0:03:24 / Tue Apr 16 16:56:55 2019
GPGPU-Sim uArch: cycles simulated: 86500  inst.: 7389536 (ipc=85.4) sim_rate=36046 (inst/sec) elapsed = 0:0:03:25 / Tue Apr 16 16:56:56 2019
GPGPU-Sim PTX: 7500000 instructions simulated : ctaid=(9,0,0) tid=(95,0,0)
GPGPU-Sim uArch: cycles simulated: 87000  inst.: 7436832 (ipc=85.5) sim_rate=36101 (inst/sec) elapsed = 0:0:03:26 / Tue Apr 16 16:56:57 2019
GPGPU-Sim uArch: cycles simulated: 87500  inst.: 7481728 (ipc=85.5) sim_rate=36143 (inst/sec) elapsed = 0:0:03:27 / Tue Apr 16 16:56:58 2019
GPGPU-Sim uArch: cycles simulated: 88000  inst.: 7518304 (ipc=85.4) sim_rate=36145 (inst/sec) elapsed = 0:0:03:28 / Tue Apr 16 16:56:59 2019
GPGPU-Sim PTX: 7600000 instructions simulated : ctaid=(8,1,0) tid=(159,0,0)
GPGPU-Sim uArch: cycles simulated: 88500  inst.: 7561024 (ipc=85.4) sim_rate=36177 (inst/sec) elapsed = 0:0:03:29 / Tue Apr 16 16:57:00 2019
GPGPU-Sim uArch: cycles simulated: 89000  inst.: 7609600 (ipc=85.5) sim_rate=35894 (inst/sec) elapsed = 0:0:03:32 / Tue Apr 16 16:57:03 2019
GPGPU-Sim PTX: 7700000 instructions simulated : ctaid=(6,2,0) tid=(31,0,0)
GPGPU-Sim uArch: cycles simulated: 89500  inst.: 7650336 (ipc=85.5) sim_rate=35917 (inst/sec) elapsed = 0:0:03:33 / Tue Apr 16 16:57:04 2019
GPGPU-Sim uArch: cycles simulated: 90000  inst.: 7683232 (ipc=85.4) sim_rate=35902 (inst/sec) elapsed = 0:0:03:34 / Tue Apr 16 16:57:05 2019
GPGPU-Sim PTX: 7800000 instructions simulated : ctaid=(9,0,0) tid=(159,0,0)
GPGPU-Sim uArch: cycles simulated: 90500  inst.: 7728832 (ipc=85.4) sim_rate=35781 (inst/sec) elapsed = 0:0:03:36 / Tue Apr 16 16:57:07 2019
GPGPU-Sim uArch: cycles simulated: 91000  inst.: 7770016 (ipc=85.4) sim_rate=35806 (inst/sec) elapsed = 0:0:03:37 / Tue Apr 16 16:57:08 2019
GPGPU-Sim uArch: cycles simulated: 91500  inst.: 7813600 (ipc=85.4) sim_rate=35842 (inst/sec) elapsed = 0:0:03:38 / Tue Apr 16 16:57:09 2019
GPGPU-Sim PTX: 7900000 instructions simulated : ctaid=(7,2,0) tid=(159,0,0)
GPGPU-Sim uArch: cycles simulated: 92000  inst.: 7858720 (ipc=85.4) sim_rate=35884 (inst/sec) elapsed = 0:0:03:39 / Tue Apr 16 16:57:10 2019
GPGPU-Sim uArch: cycles simulated: 92500  inst.: 7902144 (ipc=85.4) sim_rate=35918 (inst/sec) elapsed = 0:0:03:40 / Tue Apr 16 16:57:11 2019
GPGPU-Sim PTX: 8000000 instructions simulated : ctaid=(3,1,0) tid=(31,0,0)
GPGPU-Sim uArch: cycles simulated: 93000  inst.: 7941504 (ipc=85.4) sim_rate=35772 (inst/sec) elapsed = 0:0:03:42 / Tue Apr 16 16:57:13 2019
GPGPU-Sim uArch: cycles simulated: 93500  inst.: 7987616 (ipc=85.4) sim_rate=35818 (inst/sec) elapsed = 0:0:03:43 / Tue Apr 16 16:57:14 2019
GPGPU-Sim PTX: 8100000 instructions simulated : ctaid=(8,4,0) tid=(31,0,0)
GPGPU-Sim uArch: cycles simulated: 94000  inst.: 8031456 (ipc=85.4) sim_rate=35854 (inst/sec) elapsed = 0:0:03:44 / Tue Apr 16 16:57:15 2019
GPGPU-Sim uArch: cycles simulated: 94500  inst.: 8075904 (ipc=85.5) sim_rate=35734 (inst/sec) elapsed = 0:0:03:46 / Tue Apr 16 16:57:17 2019
GPGPU-Sim uArch: cycles simulated: 95000  inst.: 8112384 (ipc=85.4) sim_rate=35737 (inst/sec) elapsed = 0:0:03:47 / Tue Apr 16 16:57:18 2019
GPGPU-Sim PTX: 8200000 instructions simulated : ctaid=(8,1,0) tid=(31,0,0)
GPGPU-Sim uArch: cycles simulated: 95500  inst.: 8156960 (ipc=85.4) sim_rate=35776 (inst/sec) elapsed = 0:0:03:48 / Tue Apr 16 16:57:19 2019
GPGPU-Sim uArch: cycles simulated: 96000  inst.: 8200928 (ipc=85.4) sim_rate=35656 (inst/sec) elapsed = 0:0:03:50 / Tue Apr 16 16:57:21 2019
GPGPU-Sim PTX: 8300000 instructions simulated : ctaid=(10,3,0) tid=(95,0,0)
GPGPU-Sim uArch: cycles simulated: 96500  inst.: 8246464 (ipc=85.5) sim_rate=35698 (inst/sec) elapsed = 0:0:03:51 / Tue Apr 16 16:57:22 2019
GPGPU-Sim uArch: cycles simulated: 97000  inst.: 8289824 (ipc=85.5) sim_rate=35732 (inst/sec) elapsed = 0:0:03:52 / Tue Apr 16 16:57:23 2019
GPGPU-Sim PTX: 8400000 instructions simulated : ctaid=(6,3,0) tid=(95,0,0)
GPGPU-Sim uArch: cycles simulated: 97500  inst.: 8330848 (ipc=85.4) sim_rate=35754 (inst/sec) elapsed = 0:0:03:53 / Tue Apr 16 16:57:24 2019
GPGPU-Sim uArch: cycles simulated: 98000  inst.: 8368320 (ipc=85.4) sim_rate=35762 (inst/sec) elapsed = 0:0:03:54 / Tue Apr 16 16:57:25 2019
GPGPU-Sim uArch: cycles simulated: 98500  inst.: 8411808 (ipc=85.4) sim_rate=35794 (inst/sec) elapsed = 0:0:03:55 / Tue Apr 16 16:57:26 2019
GPGPU-Sim PTX: 8500000 instructions simulated : ctaid=(4,2,0) tid=(31,0,0)
GPGPU-Sim uArch: cycles simulated: 99000  inst.: 8459648 (ipc=85.5) sim_rate=35845 (inst/sec) elapsed = 0:0:03:56 / Tue Apr 16 16:57:27 2019
GPGPU-Sim uArch: cycles simulated: 99500  inst.: 8503744 (ipc=85.5) sim_rate=35730 (inst/sec) elapsed = 0:0:03:58 / Tue Apr 16 16:57:29 2019
GPGPU-Sim PTX: 8600000 instructions simulated : ctaid=(6,0,0) tid=(31,0,0)
GPGPU-Sim uArch: cycles simulated: 100000  inst.: 8549728 (ipc=85.5) sim_rate=35772 (inst/sec) elapsed = 0:0:03:59 / Tue Apr 16 16:57:30 2019
GPGPU-Sim uArch: cycles simulated: 100500  inst.: 8586432 (ipc=85.4) sim_rate=35628 (inst/sec) elapsed = 0:0:04:01 / Tue Apr 16 16:57:32 2019
GPGPU-Sim PTX: 8700000 instructions simulated : ctaid=(0,2,0) tid=(95,0,0)
GPGPU-Sim uArch: cycles simulated: 101000  inst.: 8629792 (ipc=85.4) sim_rate=35513 (inst/sec) elapsed = 0:0:04:03 / Tue Apr 16 16:57:34 2019
GPGPU-Sim uArch: cycles simulated: 101500  inst.: 8664128 (ipc=85.4) sim_rate=35508 (inst/sec) elapsed = 0:0:04:04 / Tue Apr 16 16:57:35 2019
GPGPU-Sim uArch: cycles simulated: 102000  inst.: 8698496 (ipc=85.3) sim_rate=35504 (inst/sec) elapsed = 0:0:04:05 / Tue Apr 16 16:57:36 2019
GPGPU-Sim PTX: 8800000 instructions simulated : ctaid=(5,2,0) tid=(31,0,0)
GPGPU-Sim uArch: cycles simulated: 103000  inst.: 8784992 (ipc=85.3) sim_rate=35566 (inst/sec) elapsed = 0:0:04:07 / Tue Apr 16 16:57:38 2019
GPGPU-Sim PTX: 8900000 instructions simulated : ctaid=(9,1,0) tid=(31,0,0)
GPGPU-Sim uArch: cycles simulated: 104000  inst.: 8869344 (ipc=85.3) sim_rate=35763 (inst/sec) elapsed = 0:0:04:08 / Tue Apr 16 16:57:39 2019
GPGPU-Sim uArch: cycles simulated: 104500  inst.: 8907264 (ipc=85.2) sim_rate=35629 (inst/sec) elapsed = 0:0:04:10 / Tue Apr 16 16:57:41 2019
GPGPU-Sim PTX: 9000000 instructions simulated : ctaid=(10,0,0) tid=(127,0,0)
GPGPU-Sim uArch: cycles simulated: 105000  inst.: 8948320 (ipc=85.2) sim_rate=35509 (inst/sec) elapsed = 0:0:04:12 / Tue Apr 16 16:57:43 2019
GPGPU-Sim uArch: cycles simulated: 105500  inst.: 8993312 (ipc=85.2) sim_rate=35546 (inst/sec) elapsed = 0:0:04:13 / Tue Apr 16 16:57:44 2019
GPGPU-Sim PTX: 9100000 instructions simulated : ctaid=(0,0,0) tid=(223,0,0)
GPGPU-Sim uArch: cycles simulated: 106000  inst.: 9037472 (ipc=85.3) sim_rate=35580 (inst/sec) elapsed = 0:0:04:14 / Tue Apr 16 16:57:45 2019
GPGPU-Sim uArch: cycles simulated: 106500  inst.: 9073408 (ipc=85.2) sim_rate=35581 (inst/sec) elapsed = 0:0:04:15 / Tue Apr 16 16:57:46 2019
GPGPU-Sim uArch: cycles simulated: 107000  inst.: 9107936 (ipc=85.1) sim_rate=35577 (inst/sec) elapsed = 0:0:04:16 / Tue Apr 16 16:57:47 2019
GPGPU-Sim PTX: 9200000 instructions simulated : ctaid=(0,2,0) tid=(95,0,0)
GPGPU-Sim uArch: cycles simulated: 107500  inst.: 9149600 (ipc=85.1) sim_rate=35601 (inst/sec) elapsed = 0:0:04:17 / Tue Apr 16 16:57:48 2019
GPGPU-Sim uArch: cycles simulated: 108000  inst.: 9192992 (ipc=85.1) sim_rate=35631 (inst/sec) elapsed = 0:0:04:18 / Tue Apr 16 16:57:49 2019
GPGPU-Sim PTX: 9300000 instructions simulated : ctaid=(5,0,0) tid=(159,0,0)
GPGPU-Sim uArch: cycles simulated: 108500  inst.: 9241280 (ipc=85.2) sim_rate=35680 (inst/sec) elapsed = 0:0:04:19 / Tue Apr 16 16:57:50 2019
GPGPU-Sim uArch: cycles simulated: 109000  inst.: 9288064 (ipc=85.2) sim_rate=35723 (inst/sec) elapsed = 0:0:04:20 / Tue Apr 16 16:57:51 2019
GPGPU-Sim PTX: 9400000 instructions simulated : ctaid=(2,1,0) tid=(159,0,0)
GPGPU-Sim uArch: cycles simulated: 109500  inst.: 9325056 (ipc=85.2) sim_rate=35728 (inst/sec) elapsed = 0:0:04:21 / Tue Apr 16 16:57:52 2019
GPGPU-Sim uArch: cycles simulated: 110000  inst.: 9365248 (ipc=85.1) sim_rate=35745 (inst/sec) elapsed = 0:0:04:22 / Tue Apr 16 16:57:53 2019
GPGPU-Sim uArch: cycles simulated: 110500  inst.: 9412320 (ipc=85.2) sim_rate=35788 (inst/sec) elapsed = 0:0:04:23 / Tue Apr 16 16:57:54 2019
GPGPU-Sim PTX: 9500000 instructions simulated : ctaid=(6,0,0) tid=(127,0,0)
GPGPU-Sim uArch: cycles simulated: 111000  inst.: 9449056 (ipc=85.1) sim_rate=35791 (inst/sec) elapsed = 0:0:04:24 / Tue Apr 16 16:57:55 2019
GPGPU-Sim uArch: cycles simulated: 111500  inst.: 9488576 (ipc=85.1) sim_rate=35805 (inst/sec) elapsed = 0:0:04:25 / Tue Apr 16 16:57:56 2019
GPGPU-Sim PTX: 9600000 instructions simulated : ctaid=(6,0,0) tid=(95,0,0)
GPGPU-Sim uArch: cycles simulated: 112000  inst.: 9524480 (ipc=85.0) sim_rate=35806 (inst/sec) elapsed = 0:0:04:26 / Tue Apr 16 16:57:57 2019
GPGPU-Sim uArch: cycles simulated: 112500  inst.: 9557152 (ipc=85.0) sim_rate=35794 (inst/sec) elapsed = 0:0:04:27 / Tue Apr 16 16:57:58 2019
GPGPU-Sim uArch: cycles simulated: 113000  inst.: 9595872 (ipc=84.9) sim_rate=35805 (inst/sec) elapsed = 0:0:04:28 / Tue Apr 16 16:57:59 2019
GPGPU-Sim PTX: 9700000 instructions simulated : ctaid=(8,0,0) tid=(223,0,0)
GPGPU-Sim uArch: cycles simulated: 113500  inst.: 9637536 (ipc=84.9) sim_rate=35562 (inst/sec) elapsed = 0:0:04:31 / Tue Apr 16 16:58:02 2019
GPGPU-Sim uArch: cycles simulated: 114000  inst.: 9676352 (ipc=84.9) sim_rate=35574 (inst/sec) elapsed = 0:0:04:32 / Tue Apr 16 16:58:03 2019
GPGPU-Sim PTX: 9800000 instructions simulated : ctaid=(6,2,0) tid=(223,0,0)
GPGPU-Sim uArch: cycles simulated: 115000  inst.: 9760672 (ipc=84.9) sim_rate=35622 (inst/sec) elapsed = 0:0:04:34 / Tue Apr 16 16:58:05 2019
GPGPU-Sim uArch: cycles simulated: 115500  inst.: 9814976 (ipc=85.0) sim_rate=35690 (inst/sec) elapsed = 0:0:04:35 / Tue Apr 16 16:58:06 2019
GPGPU-Sim PTX: 9900000 instructions simulated : ctaid=(1,1,0) tid=(223,0,0)
GPGPU-Sim uArch: cycles simulated: 116000  inst.: 9857856 (ipc=85.0) sim_rate=35587 (inst/sec) elapsed = 0:0:04:37 / Tue Apr 16 16:58:08 2019
GPGPU-Sim PTX: 10000000 instructions simulated : ctaid=(5,2,0) tid=(95,0,0)
GPGPU-Sim uArch: cycles simulated: 117000  inst.: 9925152 (ipc=84.8) sim_rate=35701 (inst/sec) elapsed = 0:0:04:38 / Tue Apr 16 16:58:09 2019
GPGPU-Sim uArch: cycles simulated: 117500  inst.: 9969280 (ipc=84.8) sim_rate=35732 (inst/sec) elapsed = 0:0:04:39 / Tue Apr 16 16:58:10 2019
GPGPU-Sim uArch: cycles simulated: 118000  inst.: 10013280 (ipc=84.9) sim_rate=35634 (inst/sec) elapsed = 0:0:04:41 / Tue Apr 16 16:58:12 2019
GPGPU-Sim PTX: 10100000 instructions simulated : ctaid=(4,1,0) tid=(31,0,0)
GPGPU-Sim uArch: cycles simulated: 118500  inst.: 10054016 (ipc=84.8) sim_rate=35652 (inst/sec) elapsed = 0:0:04:42 / Tue Apr 16 16:58:13 2019
GPGPU-Sim uArch: cycles simulated: 119000  inst.: 10093632 (ipc=84.8) sim_rate=35666 (inst/sec) elapsed = 0:0:04:43 / Tue Apr 16 16:58:14 2019
GPGPU-Sim PTX: 10200000 instructions simulated : ctaid=(8,2,0) tid=(95,0,0)
GPGPU-Sim uArch: cycles simulated: 119500  inst.: 10132576 (ipc=84.8) sim_rate=35678 (inst/sec) elapsed = 0:0:04:44 / Tue Apr 16 16:58:15 2019
GPGPU-Sim uArch: cycles simulated: 120000  inst.: 10170624 (ipc=84.8) sim_rate=35686 (inst/sec) elapsed = 0:0:04:45 / Tue Apr 16 16:58:16 2019
GPGPU-Sim uArch: cycles simulated: 120500  inst.: 10207072 (ipc=84.7) sim_rate=35689 (inst/sec) elapsed = 0:0:04:46 / Tue Apr 16 16:58:17 2019
GPGPU-Sim PTX: 10300000 instructions simulated : ctaid=(0,1,0) tid=(159,0,0)
GPGPU-Sim uArch: cycles simulated: 121000  inst.: 10255968 (ipc=84.8) sim_rate=35735 (inst/sec) elapsed = 0:0:04:47 / Tue Apr 16 16:58:18 2019
GPGPU-Sim uArch: cycles simulated: 121500  inst.: 10302880 (ipc=84.8) sim_rate=35650 (inst/sec) elapsed = 0:0:04:49 / Tue Apr 16 16:58:20 2019
GPGPU-Sim PTX: 10400000 instructions simulated : ctaid=(5,0,0) tid=(31,0,0)
GPGPU-Sim uArch: cycles simulated: 122000  inst.: 10349632 (ipc=84.8) sim_rate=35688 (inst/sec) elapsed = 0:0:04:50 / Tue Apr 16 16:58:21 2019
GPGPU-Sim uArch: cycles simulated: 122500  inst.: 10404544 (ipc=84.9) sim_rate=35754 (inst/sec) elapsed = 0:0:04:51 / Tue Apr 16 16:58:22 2019
GPGPU-Sim PTX: 10500000 instructions simulated : ctaid=(6,2,0) tid=(95,0,0)
GPGPU-Sim uArch: cycles simulated: 123000  inst.: 10441568 (ipc=84.9) sim_rate=35758 (inst/sec) elapsed = 0:0:04:52 / Tue Apr 16 16:58:23 2019
GPGPU-Sim uArch: cycles simulated: 123500  inst.: 10467840 (ipc=84.8) sim_rate=35726 (inst/sec) elapsed = 0:0:04:53 / Tue Apr 16 16:58:24 2019
GPGPU-Sim uArch: cycles simulated: 124000  inst.: 10506368 (ipc=84.7) sim_rate=35614 (inst/sec) elapsed = 0:0:04:55 / Tue Apr 16 16:58:26 2019
GPGPU-Sim PTX: 10600000 instructions simulated : ctaid=(9,1,0) tid=(159,0,0)
GPGPU-Sim uArch: cycles simulated: 124500  inst.: 10544128 (ipc=84.7) sim_rate=35502 (inst/sec) elapsed = 0:0:04:57 / Tue Apr 16 16:58:28 2019
GPGPU-Sim uArch: cycles simulated: 125000  inst.: 10584480 (ipc=84.7) sim_rate=35518 (inst/sec) elapsed = 0:0:04:58 / Tue Apr 16 16:58:29 2019
GPGPU-Sim PTX: 10700000 instructions simulated : ctaid=(4,0,0) tid=(63,0,0)
GPGPU-Sim uArch: cycles simulated: 125500  inst.: 10620000 (ipc=84.6) sim_rate=35400 (inst/sec) elapsed = 0:0:05:00 / Tue Apr 16 16:58:31 2019
GPGPU-Sim uArch: cycles simulated: 126000  inst.: 10657440 (ipc=84.6) sim_rate=35406 (inst/sec) elapsed = 0:0:05:01 / Tue Apr 16 16:58:32 2019
GPGPU-Sim uArch: cycles simulated: 126500  inst.: 10697632 (ipc=84.6) sim_rate=35422 (inst/sec) elapsed = 0:0:05:02 / Tue Apr 16 16:58:33 2019
GPGPU-Sim PTX: 10800000 instructions simulated : ctaid=(6,3,0) tid=(159,0,0)
GPGPU-Sim uArch: cycles simulated: 127000  inst.: 10737248 (ipc=84.5) sim_rate=35436 (inst/sec) elapsed = 0:0:05:03 / Tue Apr 16 16:58:34 2019
GPGPU-Sim uArch: cycles simulated: 127500  inst.: 10772736 (ipc=84.5) sim_rate=35436 (inst/sec) elapsed = 0:0:05:04 / Tue Apr 16 16:58:35 2019
GPGPU-Sim uArch: cycles simulated: 128000  inst.: 10816384 (ipc=84.5) sim_rate=35463 (inst/sec) elapsed = 0:0:05:05 / Tue Apr 16 16:58:36 2019
GPGPU-Sim PTX: 10900000 instructions simulated : ctaid=(6,0,0) tid=(63,0,0)
GPGPU-Sim uArch: cycles simulated: 128500  inst.: 10860352 (ipc=84.5) sim_rate=35491 (inst/sec) elapsed = 0:0:05:06 / Tue Apr 16 16:58:37 2019
GPGPU-Sim uArch: cycles simulated: 129000  inst.: 10903488 (ipc=84.5) sim_rate=35400 (inst/sec) elapsed = 0:0:05:08 / Tue Apr 16 16:58:39 2019
GPGPU-Sim PTX: 11000000 instructions simulated : ctaid=(2,2,0) tid=(31,0,0)
GPGPU-Sim uArch: cycles simulated: 129500  inst.: 10947456 (ipc=84.5) sim_rate=35314 (inst/sec) elapsed = 0:0:05:10 / Tue Apr 16 16:58:41 2019
GPGPU-Sim uArch: cycles simulated: 130000  inst.: 10985248 (ipc=84.5) sim_rate=35322 (inst/sec) elapsed = 0:0:05:11 / Tue Apr 16 16:58:42 2019
GPGPU-Sim PTX: 11100000 instructions simulated : ctaid=(0,1,0) tid=(127,0,0)
GPGPU-Sim uArch: cycles simulated: 131000  inst.: 11065312 (ipc=84.5) sim_rate=35465 (inst/sec) elapsed = 0:0:05:12 / Tue Apr 16 16:58:43 2019
GPGPU-Sim uArch: cycles simulated: 131500  inst.: 11106752 (ipc=84.5) sim_rate=35484 (inst/sec) elapsed = 0:0:05:13 / Tue Apr 16 16:58:44 2019
GPGPU-Sim PTX: 11200000 instructions simulated : ctaid=(3,0,0) tid=(31,0,0)
GPGPU-Sim uArch: cycles simulated: 132000  inst.: 11145632 (ipc=84.4) sim_rate=35495 (inst/sec) elapsed = 0:0:05:14 / Tue Apr 16 16:58:45 2019
GPGPU-Sim uArch: cycles simulated: 132500  inst.: 11191904 (ipc=84.5) sim_rate=35529 (inst/sec) elapsed = 0:0:05:15 / Tue Apr 16 16:58:46 2019
GPGPU-Sim PTX: 11300000 instructions simulated : ctaid=(0,1,0) tid=(95,0,0)
GPGPU-Sim uArch: cycles simulated: 133000  inst.: 11232960 (ipc=84.5) sim_rate=35547 (inst/sec) elapsed = 0:0:05:16 / Tue Apr 16 16:58:47 2019
GPGPU-Sim uArch: cycles simulated: 133500  inst.: 11278432 (ipc=84.5) sim_rate=35578 (inst/sec) elapsed = 0:0:05:17 / Tue Apr 16 16:58:48 2019
GPGPU-Sim PTX: 11400000 instructions simulated : ctaid=(6,0,0) tid=(31,0,0)
GPGPU-Sim uArch: cycles simulated: 134000  inst.: 11317920 (ipc=84.5) sim_rate=35590 (inst/sec) elapsed = 0:0:05:18 / Tue Apr 16 16:58:49 2019
GPGPU-Sim uArch: cycles simulated: 134500  inst.: 11355296 (ipc=84.4) sim_rate=35596 (inst/sec) elapsed = 0:0:05:19 / Tue Apr 16 16:58:50 2019
GPGPU-Sim PTX: 11500000 instructions simulated : ctaid=(7,0,0) tid=(63,0,0)
GPGPU-Sim uArch: cycles simulated: 135500  inst.: 11430368 (ipc=84.4) sim_rate=35719 (inst/sec) elapsed = 0:0:05:20 / Tue Apr 16 16:58:51 2019
GPGPU-Sim uArch: cycles simulated: 136000  inst.: 11475520 (ipc=84.4) sim_rate=35638 (inst/sec) elapsed = 0:0:05:22 / Tue Apr 16 16:58:53 2019
GPGPU-Sim PTX: 11600000 instructions simulated : ctaid=(6,0,0) tid=(159,0,0)
GPGPU-Sim uArch: cycles simulated: 136500  inst.: 11518752 (ipc=84.4) sim_rate=35661 (inst/sec) elapsed = 0:0:05:23 / Tue Apr 16 16:58:54 2019
GPGPU-Sim uArch: cycles simulated: 137000  inst.: 11557760 (ipc=84.4) sim_rate=35562 (inst/sec) elapsed = 0:0:05:25 / Tue Apr 16 16:58:56 2019
GPGPU-Sim uArch: cycles simulated: 137500  inst.: 11604800 (ipc=84.4) sim_rate=35597 (inst/sec) elapsed = 0:0:05:26 / Tue Apr 16 16:58:57 2019
GPGPU-Sim PTX: 11700000 instructions simulated : ctaid=(0,0,0) tid=(223,0,0)
GPGPU-Sim uArch: cycles simulated: 138000  inst.: 11641760 (ipc=84.4) sim_rate=35601 (inst/sec) elapsed = 0:0:05:27 / Tue Apr 16 16:58:58 2019
GPGPU-Sim uArch: cycles simulated: 138500  inst.: 11681728 (ipc=84.3) sim_rate=35615 (inst/sec) elapsed = 0:0:05:28 / Tue Apr 16 16:58:59 2019
GPGPU-Sim PTX: 11800000 instructions simulated : ctaid=(0,1,0) tid=(191,0,0)
GPGPU-Sim uArch: cycles simulated: 139000  inst.: 11723520 (ipc=84.3) sim_rate=35633 (inst/sec) elapsed = 0:0:05:29 / Tue Apr 16 16:59:00 2019
GPGPU-Sim uArch: cycles simulated: 139500  inst.: 11767072 (ipc=84.4) sim_rate=35657 (inst/sec) elapsed = 0:0:05:30 / Tue Apr 16 16:59:01 2019
GPGPU-Sim uArch: cycles simulated: 140000  inst.: 11808896 (ipc=84.3) sim_rate=35676 (inst/sec) elapsed = 0:0:05:31 / Tue Apr 16 16:59:02 2019
GPGPU-Sim PTX: 11900000 instructions simulated : ctaid=(4,1,0) tid=(95,0,0)
GPGPU-Sim uArch: cycles simulated: 140500  inst.: 11842624 (ipc=84.3) sim_rate=35670 (inst/sec) elapsed = 0:0:05:32 / Tue Apr 16 16:59:03 2019
GPGPU-Sim uArch: cycles simulated: 141000  inst.: 11891808 (ipc=84.3) sim_rate=35711 (inst/sec) elapsed = 0:0:05:33 / Tue Apr 16 16:59:04 2019
GPGPU-Sim PTX: 12000000 instructions simulated : ctaid=(5,0,0) tid=(223,0,0)
GPGPU-Sim uArch: cycles simulated: 141500  inst.: 11935904 (ipc=84.4) sim_rate=35736 (inst/sec) elapsed = 0:0:05:34 / Tue Apr 16 16:59:05 2019
GPGPU-Sim uArch: cycles simulated: 142000  inst.: 11976736 (ipc=84.3) sim_rate=35645 (inst/sec) elapsed = 0:0:05:36 / Tue Apr 16 16:59:07 2019
GPGPU-Sim PTX: 12100000 instructions simulated : ctaid=(5,0,0) tid=(63,0,0)
GPGPU-Sim uArch: cycles simulated: 142500  inst.: 12026976 (ipc=84.4) sim_rate=35582 (inst/sec) elapsed = 0:0:05:38 / Tue Apr 16 16:59:09 2019
GPGPU-Sim uArch: cycles simulated: 143000  inst.: 12063136 (ipc=84.4) sim_rate=35584 (inst/sec) elapsed = 0:0:05:39 / Tue Apr 16 16:59:10 2019
GPGPU-Sim uArch: cycles simulated: 143500  inst.: 12095488 (ipc=84.3) sim_rate=35574 (inst/sec) elapsed = 0:0:05:40 / Tue Apr 16 16:59:11 2019
GPGPU-Sim PTX: 12200000 instructions simulated : ctaid=(2,1,0) tid=(127,0,0)
GPGPU-Sim uArch: cycles simulated: 144000  inst.: 12139584 (ipc=84.3) sim_rate=35599 (inst/sec) elapsed = 0:0:05:41 / Tue Apr 16 16:59:12 2019
GPGPU-Sim uArch: cycles simulated: 144500  inst.: 12185184 (ipc=84.3) sim_rate=35629 (inst/sec) elapsed = 0:0:05:42 / Tue Apr 16 16:59:13 2019
GPGPU-Sim PTX: 12300000 instructions simulated : ctaid=(8,3,0) tid=(159,0,0)
GPGPU-Sim uArch: cycles simulated: 145500  inst.: 12281760 (ipc=84.4) sim_rate=35702 (inst/sec) elapsed = 0:0:05:44 / Tue Apr 16 16:59:15 2019
GPGPU-Sim PTX: 12400000 instructions simulated : ctaid=(5,0,0) tid=(31,0,0)
GPGPU-Sim uArch: cycles simulated: 146000  inst.: 12330048 (ipc=84.5) sim_rate=35739 (inst/sec) elapsed = 0:0:05:45 / Tue Apr 16 16:59:16 2019
GPGPU-Sim PTX: 12500000 instructions simulated : ctaid=(4,2,0) tid=(31,0,0)
GPGPU-Sim uArch: cycles simulated: 147000  inst.: 12427872 (ipc=84.5) sim_rate=35918 (inst/sec) elapsed = 0:0:05:46 / Tue Apr 16 16:59:17 2019
GPGPU-Sim uArch: cycles simulated: 147500  inst.: 12470112 (ipc=84.5) sim_rate=35833 (inst/sec) elapsed = 0:0:05:48 / Tue Apr 16 16:59:19 2019
GPGPU-Sim PTX: 12600000 instructions simulated : ctaid=(9,2,0) tid=(31,0,0)
GPGPU-Sim uArch: cycles simulated: 148000  inst.: 12520864 (ipc=84.6) sim_rate=35671 (inst/sec) elapsed = 0:0:05:51 / Tue Apr 16 16:59:22 2019
GPGPU-Sim uArch: cycles simulated: 148500  inst.: 12558784 (ipc=84.6) sim_rate=35678 (inst/sec) elapsed = 0:0:05:52 / Tue Apr 16 16:59:23 2019
GPGPU-Sim PTX: 12700000 instructions simulated : ctaid=(0,1,0) tid=(31,0,0)
GPGPU-Sim uArch: cycles simulated: 149500  inst.: 12652928 (ipc=84.6) sim_rate=35843 (inst/sec) elapsed = 0:0:05:53 / Tue Apr 16 16:59:24 2019
GPGPU-Sim uArch: cycles simulated: 150000  inst.: 12703328 (ipc=84.7) sim_rate=35784 (inst/sec) elapsed = 0:0:05:55 / Tue Apr 16 16:59:26 2019
GPGPU-Sim PTX: 12800000 instructions simulated : ctaid=(2,2,0) tid=(95,0,0)
GPGPU-Sim uArch: cycles simulated: 150500  inst.: 12748416 (ipc=84.7) sim_rate=35810 (inst/sec) elapsed = 0:0:05:56 / Tue Apr 16 16:59:27 2019
GPGPU-Sim uArch: cycles simulated: 151000  inst.: 12796448 (ipc=84.7) sim_rate=35844 (inst/sec) elapsed = 0:0:05:57 / Tue Apr 16 16:59:28 2019
GPGPU-Sim PTX: 12900000 instructions simulated : ctaid=(9,1,0) tid=(223,0,0)
GPGPU-Sim uArch: cycles simulated: 151500  inst.: 12833536 (ipc=84.7) sim_rate=35847 (inst/sec) elapsed = 0:0:05:58 / Tue Apr 16 16:59:29 2019
GPGPU-Sim uArch: cycles simulated: 152000  inst.: 12874944 (ipc=84.7) sim_rate=35863 (inst/sec) elapsed = 0:0:05:59 / Tue Apr 16 16:59:30 2019
[...]
dram[4]:  1.120892  1.128107  1.115534  1.122317  1.115712  1.118511  1.119574  1.121173  1.118211  1.121202  1.121018  1.121170  1.120949  1.128165  1.122810  1.124457 
dram[5]:  1.133506  1.138011  1.123372  1.127321  1.126218  1.124486  1.129090  1.125856  1.126588  1.130322  1.127594  1.130325  1.131434  1.130107  1.130592  1.134520 
average row locality = 2573488/2286372 = 1.125577
number of total memory accesses made:
dram[0]:         0         0         0         0         0         0         0         0         0         0         0         0         0         0         0         0 
dram[1]:         0         0         0         0         0         0         0         0         0         0         0         0         0         0         0         0 
dram[2]:         0         0         0         0         0         0         0         0         0         0         0         0         0         0         0         0 
dram[3]:         0         0         0         0         0         0         0         0         0         0         0         0         0         0         0         0 
dram[4]:         0         0         0         0         0         0         0         0         0         0         0         0         0         0         0         0 
dram[5]:         0         0         0         0         0         0         0         0         0         0         0         0         0         0         0         0 
total accesses: 0
min_bank_accesses = 0!
min_chip_accesses = 0!
number of total read accesses:
dram[0]:     26455     26698     26502     26552     26374     26513     27310     26993     26636     26767     26813     26825     26377     26498     26622     26370 
dram[1]:     26709     26865     26508     26654     26659     26769     27296     27435     26818     27219     26920     26956     26753     26617     26579     27015 
dram[2]:     26699     26688     26070     26863     26522     26681     27213     27527     26798     27042     26750     27184     26421     26680     26428     26746 
dram[3]:     27047     26753     26587     26462     26911     26657     27477     27404     27095     26870     27094     26991     26668     26505     26903     26870 
dram[4]:     26370     26671     26118     26352     26458     26502     27003     27027     26600     26827     26641     26602     26301     26577     26404     26345 
dram[5]:     27105     27279     26734     26465     26929     27054     27534     27132     27144     27373     27113     26930     27019     26833     26748     26823 
total reads: 2571696
bank skew: 27534/26070 = 1.06
chip skew: 432215/424798 = 1.02
number of total write accesses:
dram[0]:        64        64         0         0         0         0         0         0         0         0         0         0        20        20        64        64 
dram[1]:        64        64         0         0         0         0         0         0         0         0         0         0        20        20        64        64 
dram[2]:        64        64         0         0         0         0         0         0         0         0         0         0        20        24        64        64 
dram[3]:        64        64         0         0         0         0         0         0         0         0         0         0        20        24        64        64 
dram[4]:        64        64         0         0         0         0         0         0         0         0         0         0        20        24        64        64 
dram[5]:        64        64         0         0         0         0         0         0         0         0         0         0        20        24        64        64 
total reads: 1792
min_bank_accesses = 0!
chip skew: 300/296 = 1.01
average mf latency per bank:
dram[0]:        976       861      1220       952       972       868       971       849       965       873       966       871       951       860       963       864
dram[1]:        999       907      1275      1017      1000       921      1006       916       998       929      1030       925       990       906      1006       926
dram[2]:        911       873      1092       930       919       866       905       856       912       866       907       861       899       852       901       859
dram[3]:        906       835      1081       904       920       842       918       832       921       827       932       855       913       827       931       843
dram[4]:        873       836       975       883       856       850       851       829       861       841       854       839       852       828       851       835
dram[5]:        872       812       993       818       885       821       883       821       874       820       894       830       877       808       882       837
maximum mf latency per bank:
dram[0]:       1044      1033      1118      1029      1049      1024      1058       965      1068       985      1050      1048      1027      1065      1048      1037
dram[1]:       1087      1075      1116      1031      1104      1012      1076      1104      1105      1044      1040      1074      1101      1072      1135      1027
dram[2]:       1021      1048      1119      1039      1011      1045      1141       989       997      1031      1080      1069      1057      1007      1038      1132
dram[3]:       1067      1048      1082      1023      1084      1033      1041       977      1076      1086      1061      1015      1051      1053      1042      1037
dram[4]:        989      1001      1012      1067       925      1018       996      1198       938      1049       982      1059      1054      1085       961      1000
dram[5]:       1050      1005      1013       983      1042      1000      1065      1025      1079      1006      1030      1044      1035       970      1118       968

Number of Memory Banks Accessed per Memory Operation per Warp (from 0):
0	0	0	0	0	0	0	0	0	0	0	0	0	0	0	0	0	0	0	0	0	0	0	0	0	0	0	0	0	0	0	0	0	0	0	0	0	0	0	0	0	0	0	0	0	0	0	0	0	0	0	0	0	0	0	0	0	0	0	0	0	0	0	0	0	0	0	0	0	0	0	0	0	0	0	0	0	0	0	0	0	0	0	0	0	0	0	0	0	0	0	0	0	0	0	0	
Average # of Memory Banks Accessed per Memory Operation per Warp=-nan

position of mrq chosen
0	0	0	0	0	0	0	0	0	0	0	0	0	0	0	0	

average position of mrq chosen = -nan
Memory Partition 0: 
Cache L2_bank_000:
MSHR contents

Cache L2_bank_001:
MSHR contents

In Dram Latency Queue (total = 0): 
DRAM[0]: 16 bks, busW=4 BL=8 CL=12, tRRD=2 tCCD=6, tRCD=12 tRAS=28 tRP=12 tRC=40
n_cmd=7467292 n_nop=5855864 n_act=379121 n_pre=379105 n_req=426601 n_rd=852610 n_write=592 bw_util=0.2285
n_activity=6393952 dram_eff=0.2669
bk0: 52910a 6638980i bk1: 53396a 6638528i bk2: 53004a 6638238i bk3: 53104a 6638629i bk4: 52748a 6631418i bk5: 53026a 6632202i bk6: 54620a 6600311i bk7: 53986a 6615345i bk8: 53272a 6633885i bk9: 53534a 6631153i bk10: 53626a 6622351i bk11: 53650a 6629671i bk12: 52754a 6635863i bk13: 52996a 6636534i bk14: 53244a 6625959i bk15: 52740a 6632449i 
dram_util_bins: 0 0 0 0 0 0 0 0 0 0
dram_eff_bins: 0 0 0 0 0 0 0 0 0 0
mrqq: max=16 avg=0.289437
Memory Partition 1: 
Cache L2_bank_002:
MSHR contents

Cache L2_bank_003:
MSHR contents

In Dram Latency Queue (total = 0): 
DRAM[1]: 16 bks, busW=4 BL=8 CL=12, tRRD=2 tCCD=6, tRCD=12 tRAS=28 tRP=12 tRC=40
n_cmd=7467292 n_nop=5843544 n_act=381814 n_pre=381798 n_req=430068 n_rd=859544 n_write=592 bw_util=0.2304
n_activity=6426628 dram_eff=0.2677
bk0: 53418a 6632660i bk1: 53730a 6630640i bk2: 53016a 6636973i bk3: 53308a 6637524i bk4: 53318a 6630213i bk5: 53538a 6630246i bk6: 54592a 6605332i bk7: 54870a 6602502i bk8: 53636a 6627043i bk9: 54438a 6618877i bk10: 53840a 6624164i bk11: 53912a 6624056i bk12: 53506a 6626756i bk13: 53234a 6630338i bk14: 53158a 6628019i bk15: 54030a 6613714i 
dram_util_bins: 0 0 0 0 0 0 0 0 0 0
dram_eff_bins: 0 0 0 0 0 0 0 0 0 0
mrqq: max=16 avg=0.281143
Memory Partition 2: 
Cache L2_bank_004:
MSHR contents

Cache L2_bank_005:
MSHR contents

In Dram Latency Queue (total = 0): 
DRAM[2]: 16 bks, busW=4 BL=8 CL=12, tRRD=2 tCCD=6, tRCD=12 tRAS=28 tRP=12 tRC=40
n_cmd=7467292 n_nop=5846330 n_act=381877 n_pre=381861 n_req=428612 n_rd=856624 n_write=600 bw_util=0.2296
n_activity=6329183 dram_eff=0.2709
bk0: 53398a 6617659i bk1: 53376a 6621315i bk2: 52140a 6637084i bk3: 53726a 6617230i bk4: 53044a 6617718i bk5: 53362a 6614871i bk6: 54426a 6588769i bk7: 55054a 6578300i bk8: 53596a 6616448i bk9: 54084a 6608862i bk10: 53500a 6613277i bk11: 54368a 6600237i bk12: 52842a 6621063i bk13: 53360a 6613424i bk14: 52856a 6614211i bk15: 53492a 6605097i 
dram_util_bins: 0 0 0 0 0 0 0 0 0 0
dram_eff_bins: 0 0 0 0 0 0 0 0 0 0
mrqq: max=16 avg=0.338383
Memory Partition 3: 
Cache L2_bank_006:
MSHR contents
MSHR: tag=0x81e4b780, atomic=0 1 entries : 0x7f965d1850f0 :  mf: uid=88590098, sid06:w15, part=3, addr=0x81e4b780, load , size=128, unknown  status = IN_PARTITION_DRAM (5657036), 

Cache L2_bank_007:
MSHR contents

In Dram Latency Queue (total = 0): 
DRAM[3]: 16 bks, busW=4 BL=8 CL=12, tRRD=2 tCCD=6, tRCD=12 tRAS=28 tRP=12 tRC=40
n_cmd=7467292 n_nop=5843232 n_act=381444 n_pre=381428 n_req=430594 n_rd=860588 n_write=600 bw_util=0.2307
n_activity=6353698 dram_eff=0.2711
bk0: 54094a 6617822i bk1: 53506a 6631579i bk2: 53174a 6631563i bk3: 52924a 6639644i bk4: 53822a 6614897i bk5: 53314a 6625688i bk6: 54954a 6596521i bk7: 54808a 6597751i bk8: 54190a 6612008i bk9: 53740a 6625088i bk10: 54188a 6615356i bk11: 53982a 6618047i bk12: 53336a 6623956i bk13: 53010a 6630288i bk14: 53806a 6610661i bk15: 53740a 6610560i 
dram_util_bins: 0 0 0 0 0 0 0 0 0 0
dram_eff_bins: 0 0 0 0 0 0 0 0 0 0
mrqq: max=16 avg=0.306233
Memory Partition 4: 
Cache L2_bank_008:
MSHR contents

Cache L2_bank_009:
MSHR contents

In Dram Latency Queue (total = 0): 
DRAM[4]: 16 bks, busW=4 BL=8 CL=12, tRRD=2 tCCD=6, tRCD=12 tRAS=28 tRP=12 tRC=40
n_cmd=7467292 n_nop=5858844 n_act=379134 n_pre=379118 n_req=425098 n_rd=849596 n_write=600 bw_util=0.2277
n_activity=6337300 dram_eff=0.2683
bk0: 52740a 6634048i bk1: 53342a 6628917i bk2: 52236a 6641343i bk3: 52704a 6637482i bk4: 52916a 6627514i bk5: 53004a 6624789i bk6: 54006a 6608044i bk7: 54054a 6607139i bk8: 53200a 6626977i bk9: 53654a 6621335i bk10: 53282a 6624013i bk11: 53204a 6625924i bk12: 52602a 6630465i bk13: 53154a 6627891i bk14: 52808a 6622009i bk15: 52690a 6627259i 
dram_util_bins: 0 0 0 0 0 0 0 0 0 0
dram_eff_bins: 0 0 0 0 0 0 0 0 0 0
mrqq: max=16 avg=0.301979
Memory Partition 5: 
Cache L2_bank_010:
MSHR contents

Cache L2_bank_011:
MSHR contents

In Dram Latency Queue (total = 0): 
DRAM[5]: 16 bks, busW=4 BL=8 CL=12, tRRD=2 tCCD=6, tRCD=12 tRAS=28 tRP=12 tRC=40
n_cmd=7467292 n_nop=5836312 n_act=382983 n_pre=382967 n_req=432515 n_rd=864430 n_write=600 bw_util=0.2317
n_activity=6417312 dram_eff=0.2696
bk0: 54210a 6625180i bk1: 54558a 6623653i bk2: 53468a 6630664i bk3: 52930a 6643174i bk4: 53858a 6624729i bk5: 54108a 6619305i bk6: 55068a 6601859i bk7: 54264a 6614417i bk8: 54288a 6619251i bk9: 54746a 6616016i bk10: 54226a 6616885i bk11: 53860a 6626399i bk12: 54038a 6622320i bk13: 53666a 6626815i bk14: 53496a 6627101i bk15: 53646a 6626113i 
dram_util_bins: 0 0 0 0 0 0 0 0 0 0
dram_eff_bins: 0 0 0 0 0 0 0 0 0 0
mrqq: max=16 avg=0.274473

========= L2 cache stats =========
L2_cache_bank[0]: Access = 567333, Miss = 213089, Miss_rate = 0.376, Pending_hits = 10, Reservation_fails = 2328
L2_cache_bank[1]: Access = 553441, Miss = 213216, Miss_rate = 0.385, Pending_hits = 13, Reservation_fails = 1666
L2_cache_bank[2]: Access = 570787, Miss = 214242, Miss_rate = 0.375, Pending_hits = 13, Reservation_fails = 305
L2_cache_bank[3]: Access = 561325, Miss = 215530, Miss_rate = 0.384, Pending_hits = 10, Reservation_fails = 28
L2_cache_bank[4]: Access = 553941, Miss = 212901, Miss_rate = 0.384, Pending_hits = 7, Reservation_fails = 3136
L2_cache_bank[5]: Access = 549828, Miss = 215411, Miss_rate = 0.392, Pending_hits = 14, Reservation_fails = 2387
L2_cache_bank[6]: Access = 556717, Miss = 215782, Miss_rate = 0.388, Pending_hits = 11, Reservation_fails = 99
L2_cache_bank[7]: Access = 543911, Miss = 214512, Miss_rate = 0.394, Pending_hits = 16, Reservation_fails = 128
L2_cache_bank[8]: Access = 551944, Miss = 211895, Miss_rate = 0.384, Pending_hits = 6, Reservation_fails = 373
L2_cache_bank[9]: Access = 542940, Miss = 212903, Miss_rate = 0.392, Pending_hits = 7, Reservation_fails = 221
L2_cache_bank[10]: Access = 558363, Miss = 216326, Miss_rate = 0.387, Pending_hits = 13, Reservation_fails = 125
L2_cache_bank[11]: Access = 546336, Miss = 215889, Miss_rate = 0.395, Pending_hits = 0, Reservation_fails = 98
L2_total_cache_accesses = 6656866
L2_total_cache_misses = 2571696
L2_total_cache_miss_rate = 0.3863
L2_total_cache_pending_hits = 120
L2_total_cache_reservation_fails = 10894
L2_total_cache_breakdown:
	L2_cache_stats_breakdown[GLOBAL_ACC_R][HIT] = 4084981
	L2_cache_stats_breakdown[GLOBAL_ACC_R][HIT_RESERVED] = 107
	L2_cache_stats_breakdown[GLOBAL_ACC_R][MISS] = 2569896
	L2_cache_stats_breakdown[GLOBAL_ACC_R][RESERVATION_FAIL] = 10480
	L2_cache_stats_breakdown[CONST_ACC_R][HIT] = 11
	L2_cache_stats_breakdown[CONST_ACC_R][HIT_RESERVED] = 3
	L2_cache_stats_breakdown[CONST_ACC_R][MISS] = 1
	L2_cache_stats_breakdown[CONST_ACC_R][RESERVATION_FAIL] = 95
	L2_cache_stats_breakdown[GLOBAL_ACC_W][MISS] = 1792
	L2_cache_stats_breakdown[INST_ACC_R][HIT] = 58
	L2_cache_stats_breakdown[INST_ACC_R][HIT_RESERVED] = 10
	L2_cache_stats_breakdown[INST_ACC_R][MISS] = 7
	L2_cache_stats_breakdown[INST_ACC_R][RESERVATION_FAIL] = 319
L2_cache_data_port_util = 0.241
L2_cache_fill_port_util = 0.152

icnt_total_pkts_mem_to_simt=33277132
icnt_total_pkts_simt_to_mem=6664034
LD_mem_lat_dist  0 0 0 0 0 0 0 0 0 0 0 0 0 0 0 0 0 0 0 0 0 0 0 0 0 0 0
ST_mem_lat_dist  0 0 0 0 0 0 0 0 0 0 0 0 0 0 0 0 0 0 0 0 0 0 0 0 0 0 0
----------------------------Interconnect-DETAILS--------------------------------
Class 0:
Packet latency average = 32.9016
	minimum = 6
	maximum = 570
Network latency average = 25.0262
	minimum = 6
	maximum = 507
Slowest packet = 10646409
Flit latency average = 17.4279
	minimum = 6
	maximum = 507
Slowest flit = 31938367
Fragmentation average = 0.000181397
	minimum = 0
	maximum = 227
Injected packet rate average = 0.0872734
	minimum = 0.0729088 (at node 9)
	maximum = 0.10102 (at node 17)
Accepted packet rate average = 0.0872734
	minimum = 0.0729088 (at node 9)
	maximum = 0.10102 (at node 17)
Injected flit rate average = 0.26182
	minimum = 0.0729881 (at node 9)
	maximum = 0.504993 (at node 17)
Accepted flit rate average= 0.26182
	minimum = 0.0961138 (at node 24)
	maximum = 0.424741 (at node 12)
Injected packet length average = 3
Accepted packet length average = 3
Total in-flight flits = 0 (0 measured)
====== Overall Traffic Statistics ======
====== Traffic class 0 ======
Packet latency average = 32.5709 (2 samples)
	minimum = 6 (2 samples)
	maximum = 575 (2 samples)
Network latency average = 24.8393 (2 samples)
	minimum = 6 (2 samples)
	maximum = 504.5 (2 samples)
Flit latency average = 17.3657 (2 samples)
	minimum = 6 (2 samples)
	maximum = 504.5 (2 samples)
Fragmentation average = 0.000174935 (2 samples)
	minimum = 0 (2 samples)
	maximum = 211 (2 samples)
Injected packet rate average = 0.0871661 (2 samples)
	minimum = 0.0730025 (2 samples)
	maximum = 0.100899 (2 samples)
Accepted packet rate average = 0.0871661 (2 samples)
	minimum = 0.0730025 (2 samples)
	maximum = 0.100899 (2 samples)
Injected flit rate average = 0.261498 (2 samples)
	minimum = 0.0730817 (2 samples)
	maximum = 0.504389 (2 samples)
Accepted flit rate average = 0.261498 (2 samples)
	minimum = 0.0960288 (2 samples)
	maximum = 0.421815 (2 samples)
Injected packet size average = 3 (2 samples)
Accepted packet size average = 3 (2 samples)
Hops average = 1 (2 samples)
----------------------------END-of-Interconnect-DETAILS-------------------------


gpgpu_simulation_time = 0 days, 2 hrs, 34 min, 34 sec (9274 sec)
gpgpu_simulation_rate = 51961 (inst/sec)
gpgpu_simulation_rate = 609 (cycle/sec)
GPGPU-Sim: synchronize waiting for inactive GPU simulation
GPGPU-Sim API: Stream Manager State
GPGPU-Sim: detected inactive GPU simulation thread
iterated 2 times

================= Centroid Coordinates =================
0: 1.23 613.61 527.61 0.00 0.00 0.01 0.00 0.00 0.00 0.00 0.03 0.01 0.00 0.00 0.00 8.15 11.06 0.00 0.00 0.00 0.00 0.99 0.01 0.22 139.44 193.37 0.83 0.02 0.06 0.01 0.00 0.00 0.00 0.00 1.00 1.23 613.61 527.61 0.00 0.00 0.01 0.00 0.00 0.00 0.00 0.03 0.01 0.00 0.00 0.00 8.15 11.06 0.00 0.00 0.00 0.00 0.99 0.01 0.22 139.44 193.37 0.83 0.02 0.06 0.01 0.00 0.00 0.00 0.00 1.23 613.61 527.61 0.00 0.00 0.01 0.00 0.00 0.00 0.00 0.03 0.01 0.00 0.00 0.00 8.15 11.06 0.00 0.00 0.00 0.00 0.99 0.01 0.22 139.44 193.37 0.83 0.02 0.06 0.01 0.00 0.00 0.00 0.00 1.00 1.23 613.61 527.61 0.00 0.00 0.01 0.00 0.00 0.00 0.00 0.03 0.01 0.00 0.00 0.00 8.15 11.06 0.00 0.00 0.00 0.00 0.99 0.01 0.22 139.44 193.37 0.83 0.02 0.06 0.01 0.00 0.00 0.00 0.00

1: 1.45 15177.44 214.67 0.00 0.00 0.01 0.00 0.00 0.00 0.00 0.00 0.02 0.01 0.02 0.00 4.59 5.07 0.00 0.01 0.00 0.00 0.98 0.03 0.25 129.85 98.10 0.52 0.05 0.20 0.01 0.00 0.00 0.00 0.00 1.00 1.45 15177.44 214.67 0.00 0.00 0.01 0.00 0.00 0.00 0.00 0.00 0.02 0.01 0.02 0.00 4.59 5.07 0.00 0.01 0.00 0.00 0.98 0.03 0.25 129.85 98.10 0.52 0.05 0.20 0.01 0.00 0.00 0.00 0.00 1.45 15177.44 214.67 0.00 0.00 0.01 0.00 0.00 0.00 0.00 0.00 0.02 0.01 0.02 0.00 4.59 5.07 0.00 0.01 0.00 0.00 0.98 0.03 0.25 129.85 98.10 0.52 0.05 0.20 0.01 0.00 0.00 0.00 0.00 1.00 1.45 15177.44 214.67 0.00 0.00 0.01 0.00 0.00 0.00 0.00 0.00 0.02 0.01 0.02 0.00 4.59 5.07 0.00 0.01 0.00 0.00 0.98 0.03 0.25 129.85 98.10 0.52 0.05 0.20 0.01 0.00 0.00 0.00 0.00

2: 3.74 600.16 40.36 0.01 0.00 0.00 0.00 0.00 0.00 0.00 0.00 0.00 0.00 0.00 0.00 338.62 287.90 0.24 0.24 0.03 0.03 0.75 0.04 0.03 240.64 180.98 0.72 0.05 0.58 0.00 0.24 0.24 0.03 0.03 1.00 3.74 600.16 40.36 0.01 0.00 0.00 0.00 0.00 0.00 0.00 0.00 0.00 0.00 0.00 0.00 338.62 287.90 0.24 0.24 0.03 0.03 0.75 0.04 0.03 240.64 180.98 0.72 0.05 0.58 0.00 0.24 0.24 0.03 0.03 3.74 600.16 40.36 0.01 0.00 0.00 0.00 0.00 0.00 0.00 0.00 0.00 0.00 0.00 0.00 338.62 287.90 0.24 0.24 0.03 0.03 0.75 0.04 0.03 240.64 180.98 0.72 0.05 0.58 0.00 0.24 0.24 0.03 0.03 1.00 3.74 600.16 40.36 0.01 0.00 0.00 0.00 0.00 0.00 0.00 0.00 0.00 0.00 0.00 0.00 338.62 287.90 0.24 0.24 0.03 0.03 0.75 0.04 0.03 240.64 180.98 0.72 0.05 0.58 0.00 0.24 0.24 0.03 0.03

3: 21.48 303.12 20528.08 0.00 0.00 0.03 0.00 0.16 0.00 0.00 0.17 0.01 0.00 0.00 0.00 7.59 11.10 0.00 0.01 0.00 0.00 1.00 0.00 0.13 130.51 246.12 0.99 0.00 0.06 0.02 0.00 0.00 0.00 0.00 1.00 21.48 303.12 20528.08 0.00 0.00 0.03 0.00 0.16 0.00 0.00 0.17 0.01 0.00 0.00 0.00 7.59 11.10 0.00 0.01 0.00 0.00 1.00 0.00 0.13 130.51 246.12 0.99 0.00 0.06 0.02 0.00 0.00 0.00 0.00 21.48 303.12 20528.08 0.00 0.00 0.03 0.00 0.16 0.00 0.00 0.17 0.01 0.00 0.00 0.00 7.59 11.10 0.00 0.01 0.00 0.00 1.00 0.00 0.13 130.51 246.12 0.99 0.00 0.06 0.02 0.00 0.00 0.00 0.00 1.00 21.48 303.12 20528.08 0.00 0.00 0.03 0.00 0.16 0.00 0.00 0.17 0.01 0.00 0.00 0.00 7.59 11.10 0.00 0.01 0.00 0.00 1.00 0.00 0.13 130.51 246.12 0.99 0.00 0.06 0.02 0.00 0.00 0.00 0.00

4: 0.31 264.14 2561.85 0.00 0.00 0.06 0.00 0.00 0.00 0.00 0.00 0.00 0.00 0.01 0.00 9.81 13.92 0.00 0.00 0.00 0.00 1.00 0.00 0.10 132.64 245.89 0.99 0.00 0.05 0.02 0.00 0.00 0.00 0.00 1.00 0.31 264.14 2561.85 0.00 0.00 0.06 0.00 0.00 0.00 0.00 0.00 0.00 0.00 0.01 0.00 9.81 13.92 0.00 0.00 0.00 0.00 1.00 0.00 0.10 132.64 245.89 0.99 0.00 0.05 0.02 0.00 0.00 0.00 0.00 0.31 264.14 2561.85 0.00 0.00 0.06 0.00 0.00 0.00 0.00 0.00 0.00 0.00 0.01 0.00 9.81 13.92 0.00 0.00 0.00 0.00 1.00 0.00 0.10 132.64 245.89 0.99 0.00 0.05 0.02 0.00 0.00 0.00 0.00 1.00 0.31 264.14 2561.85 0.00 0.00 0.06 0.00 0.00 0.00 0.00 0.00 0.00 0.00 0.01 0.00 9.81 13.92 0.00 0.00 0.00 0.00 1.00 0.00 0.10 132.64 245.89 0.99 0.00 0.05 0.02 0.00 0.00 0.00 0.00

Number of Iteration: 1
Time for I/O: 0.00000sec
Time for Entire Clustering: 0.00000sec
Root Mean Squared Error: 55443.000
