

        *** GPGPU-Sim Simulator Version 3.2.2  [build 0] ***


GPGPU-Sim PTX: simulation mode 0 (can change with PTX_SIM_MODE_FUNC environment variable:
               1=functional simulation only, 0=detailed performance simulator)
GPGPU-Sim: Configuration options:

-network_mode                           1 # Interconnection network mode
-inter_config_file   config_fermi_islip.icnt # Interconnection network config file
-gpgpu_ptx_use_cuobjdump                    1 # Use cuobjdump to extract ptx and sass from binaries
-gpgpu_experimental_lib_support                    0 # Try to extract code from cuda libraries [Broken because of unknown cudaGetExportTable]
-gpgpu_ptx_convert_to_ptxplus                    0 # Convert SASS (native ISA) to ptxplus and run ptxplus
-gpgpu_ptx_force_max_capability                   20 # Force maximum compute capability
-gpgpu_ptx_inst_debug_to_file                    0 # Dump executed instructions' debug information to file
-gpgpu_ptx_inst_debug_file       inst_debug.txt # Executed instructions' debug output file
-gpgpu_ptx_inst_debug_thread_uid                    1 # Thread UID for executed instructions' debug output
-gpgpu_simd_model                       1 # 1 = post-dominator
-gpgpu_shader_core_pipeline              1536:32 # shader core pipeline config, i.e., {<nthread>:<warpsize>}
-gpgpu_tex_cache:l1  4:128:24,L:R:m:N:L,F:128:4,128:2 # per-shader L1 texture cache  (READ-ONLY) config  {<nsets>:<bsize>:<assoc>,<rep>:<wr>:<alloc>:<wr_alloc>,<mshr>:<N>:<merge>,<mq>:<rf>}
-gpgpu_const_cache:l1 64:64:2,L:R:f:N:L,A:2:32,4 # per-shader L1 constant memory cache  (READ-ONLY) config  {<nsets>:<bsize>:<assoc>,<rep>:<wr>:<alloc>:<wr_alloc>,<mshr>:<N>:<merge>,<mq>} 
-gpgpu_cache:il1     4:128:4,L:R:f:N:L,A:2:32,4 # shader L1 instruction cache config  {<nsets>:<bsize>:<assoc>,<rep>:<wr>:<alloc>:<wr_alloc>,<mshr>:<N>:<merge>,<mq>} 
-gpgpu_cache:dl1     32:128:4,L:L:m:N:H,A:32:8,8 # per-shader L1 data cache config  {<nsets>:<bsize>:<assoc>,<rep>:<wr>:<alloc>:<wr_alloc>,<mshr>:<N>:<merge>,<mq> | none}
-gpgpu_cache:dl1PrefL1                 none # per-shader L1 data cache config  {<nsets>:<bsize>:<assoc>,<rep>:<wr>:<alloc>:<wr_alloc>,<mshr>:<N>:<merge>,<mq> | none}
-gpgpu_cache:dl1PreShared                 none # per-shader L1 data cache config  {<nsets>:<bsize>:<assoc>,<rep>:<wr>:<alloc>:<wr_alloc>,<mshr>:<N>:<merge>,<mq> | none}
-gmem_skip_L1D                          0 # global memory access skip L1D cache (implements -Xptxas -dlcm=cg, default=no skip)
-gpgpu_perfect_mem                      0 # enable perfect memory mode (no cache miss)
-n_regfile_gating_group                    4 # group of lanes that should be read/written together)
-gpgpu_clock_gated_reg_file                    0 # enable clock gated reg file for power calculations
-gpgpu_clock_gated_lanes                    0 # enable clock gated lanes for power calculations
-gpgpu_shader_registers                32768 # Number of registers per shader core. Limits number of concurrent CTAs. (default 8192)
-gpgpu_shader_cta                       8 # Maximum number of concurrent CTAs in shader (default 8)
-gpgpu_num_cta_barriers                   16 # Maximum number of named barriers per CTA (default 16)
-gpgpu_n_clusters                      15 # number of processing clusters
-gpgpu_n_cores_per_cluster                    1 # number of simd cores per cluster
-gpgpu_n_cluster_ejection_buffer_size                    8 # number of packets in ejection buffer
-gpgpu_n_ldst_response_buffer_size                    2 # number of response packets in ld/st unit ejection buffer
-gpgpu_shmem_size                   16384 # Size of shared memory per shader core (default 16kB)
-gpgpu_shmem_size                   49152 # Size of shared memory per shader core (default 16kB)
-gpgpu_shmem_size_PrefL1                16384 # Size of shared memory per shader core (default 16kB)
-gpgpu_shmem_size_PrefShared                16384 # Size of shared memory per shader core (default 16kB)
-gpgpu_shmem_num_banks                   32 # Number of banks in the shared memory in each shader core (default 16)
-gpgpu_shmem_limited_broadcast                    0 # Limit shared memory to do one broadcast per cycle (default on)
-gpgpu_shmem_warp_parts                    1 # Number of portions a warp is divided into for shared memory bank conflict check 
-gpgpu_warpdistro_shader                   -1 # Specify which shader core to collect the warp size distribution from
-gpgpu_warp_issue_shader                    0 # Specify which shader core to collect the warp issue distribution from
-gpgpu_local_mem_map                    1 # Mapping from local memory space address to simulated GPU physical address space (default = enabled)
-gpgpu_num_reg_banks                   16 # Number of register banks (default = 8)
-gpgpu_reg_bank_use_warp_id                    0 # Use warp ID in mapping registers to banks (default = off)
-gpgpu_operand_collector_num_units_sp                    6 # number of collector units (default = 4)
-gpgpu_operand_collector_num_units_sfu                    8 # number of collector units (default = 4)
-gpgpu_operand_collector_num_units_mem                    2 # number of collector units (default = 2)
-gpgpu_operand_collector_num_units_gen                    0 # number of collector units (default = 0)
-gpgpu_operand_collector_num_in_ports_sp                    2 # number of collector unit in ports (default = 1)
-gpgpu_operand_collector_num_in_ports_sfu                    1 # number of collector unit in ports (default = 1)
-gpgpu_operand_collector_num_in_ports_mem                    1 # number of collector unit in ports (default = 1)
-gpgpu_operand_collector_num_in_ports_gen                    0 # number of collector unit in ports (default = 0)
-gpgpu_operand_collector_num_out_ports_sp                    2 # number of collector unit in ports (default = 1)
-gpgpu_operand_collector_num_out_ports_sfu                    1 # number of collector unit in ports (default = 1)
-gpgpu_operand_collector_num_out_ports_mem                    1 # number of collector unit in ports (default = 1)
-gpgpu_operand_collector_num_out_ports_gen                    0 # number of collector unit in ports (default = 0)
-gpgpu_coalesce_arch                   13 # Coalescing arch (default = 13, anything else is off for now)
-gpgpu_num_sched_per_core                    2 # Number of warp schedulers per core
-gpgpu_max_insn_issue_per_warp                    1 # Max number of instructions that can be issued per warp in one cycle by scheduler
-gpgpu_simt_core_sim_order                    1 # Select the simulation order of cores in a cluster (0=Fix, 1=Round-Robin)
-gpgpu_pipeline_widths        2,1,1,2,1,1,2 # Pipeline widths ID_OC_SP,ID_OC_SFU,ID_OC_MEM,OC_EX_SP,OC_EX_SFU,OC_EX_MEM,EX_WB
-gpgpu_num_sp_units                     2 # Number of SP units (default=1)
-gpgpu_num_sfu_units                    1 # Number of SF units (default=1)
-gpgpu_num_mem_units                    1 # Number if ldst units (default=1) WARNING: not hooked up to anything
-gpgpu_scheduler                      gto # Scheduler configuration: < lrr | gto | two_level_active > If two_level_active:<num_active_warps>:<inner_prioritization>:<outer_prioritization>For complete list of prioritization values see shader.h enum scheduler_prioritization_typeDefault: gto
-gpgpu_dram_scheduler                    1 # 0 = fifo, 1 = FR-FCFS (defaul)
-gpgpu_dram_partition_queues              8:8:8:8 # i2$:$2d:d2$:$2i
-l2_ideal                               0 # Use a ideal L2 cache that always hit
-gpgpu_cache:dl2     64:128:8,L:B:m:W:L,A:32:4,4:0,32 # unified banked L2 data cache config  {<nsets>:<bsize>:<assoc>,<rep>:<wr>:<alloc>:<wr_alloc>,<mshr>:<N>:<merge>,<mq>}
-gpgpu_cache:dl2_texture_only                    0 # L2 cache used for texture only
-gpgpu_n_mem                            6 # number of memory modules (e.g. memory controllers) in gpu
-gpgpu_n_sub_partition_per_mchannel                    2 # number of memory subpartition in each memory module
-gpgpu_n_mem_per_ctrlr                    2 # number of memory chips per memory controller
-gpgpu_memlatency_stat                   14 # track and display latency statistics 0x2 enables MC, 0x4 enables queue logs
-gpgpu_frfcfs_dram_sched_queue_size                   16 # 0 = unlimited (default); # entries per chip
-gpgpu_dram_return_queue_size                  116 # 0 = unlimited (default); # entries per chip
-gpgpu_dram_buswidth                    8 # default = 4 bytes (8 bytes per cycle at DDR)
-gpgpu_dram_burst_length                    8 # Burst length of each DRAM request (default = 4 data bus cycle)
-dram_data_command_freq_ratio                    4 # Frequency ratio between DRAM data bus and command bus (default = 2 times, i.e. DDR)
-gpgpu_dram_timing_opt nbk=16:CCD=2:RRD=6:RCD=12:RAS=28:RP=12:RC=40: CL=12:WL=4:CDLR=5:WR=12:nbkgrp=4:CCDL=3:RTPL=2 # DRAM timing parameters = {nbk:tCCD:tRRD:tRCD:tRAS:tRP:tRC:CL:WL:tCDLR:tWR:nbkgrp:tCCDL:tRTPL}
-rop_latency                          120 # ROP queue latency (default 85)
-dram_latency                         100 # DRAM latency (default 30)
-gpgpu_mem_addr_mapping dramid@8;00000000.00000000.00000000.00000000.0000RRRR.RRRRRRRR.BBBCCCCB.CCSSSSSS # mapping memory address to dram model {dramid@<start bit>;<memory address map>}
-gpgpu_mem_addr_test                    0 # run sweep test to check address mapping for aliased address
-gpgpu_mem_address_mask                    1 # 0 = old addressing mask, 1 = new addressing mask, 2 = new add. mask + flipped bank sel and chip sel bits
-gpuwattch_xml_file  gpuwattch_gtx480.xml # GPUWattch XML file
-power_simulation_enabled                    1 # Turn on power simulator (1=On, 0=Off)
-power_per_cycle_dump                    0 # Dump detailed power output each cycle
-power_trace_enabled                    0 # produce a file for the power trace (1=On, 0=Off)
-power_trace_zlevel                     6 # Compression level of the power trace output log (0=no comp, 9=highest)
-steady_power_levels_enabled                    0 # produce a file for the steady power levels (1=On, 0=Off)
-steady_state_definition                  8:4 # allowed deviation:number of samples
-gpgpu_max_cycle                        0 # terminates gpu simulation early (0 = no limit)
-gpgpu_max_insn                         0 # terminates gpu simulation early (0 = no limit)
-gpgpu_max_cta                          0 # terminates gpu simulation early (0 = no limit)
-gpgpu_runtime_stat                   500 # display runtime statistics such as dram utilization {<freq>:<flag>}
-liveness_message_freq                    1 # Minimum number of seconds between simulation liveness messages (0 = always print)
-gpgpu_flush_l1_cache                    0 # Flush L1 cache at the end of each kernel call
-gpgpu_flush_l2_cache                    0 # Flush L2 cache at the end of each kernel call
-gpgpu_deadlock_detect                    1 # Stop the simulation at deadlock (1=on (default), 0=off)
-gpgpu_ptx_instruction_classification                    0 # if enabled will classify ptx instruction types per kernel (Max 255 kernels now)
-gpgpu_ptx_sim_mode                     0 # Select between Performance (default) or Functional simulation (1)
-gpgpu_clock_domains 700.0:700.0:700.0:924.0 # Clock Domain Frequencies in MhZ {<Core Clock>:<ICNT Clock>:<L2 Clock>:<DRAM Clock>}
-gpgpu_max_concurrent_kernel                    8 # maximum kernels that can run concurrently on GPU
-gpgpu_cflog_interval                    0 # Interval between each snapshot in control flow logger
-visualizer_enabled                     0 # Turn on visualizer output (1=On, 0=Off)
-visualizer_outputfile                 NULL # Specifies the output log file for visualizer
-visualizer_zlevel                      6 # Compression level of the visualizer output log (0=no comp, 9=highest)
-trace_enabled                          0 # Turn on traces
-trace_components                    none # comma seperated list of traces to enable. Complete list found in trace_streams.tup. Default none
-trace_sampling_core                    0 # The core which is printed using CORE_DPRINTF. Default 0
-trace_sampling_memory_partition                   -1 # The memory partition which is printed using MEMPART_DPRINTF. Default -1 (i.e. all)
-enable_ptx_file_line_stats                    1 # Turn on PTX source line statistic profiling. (1 = On)
-ptx_line_stats_filename gpgpu_inst_stats.txt # Output file for PTX source line statistics.
-save_embedded_ptx                      0 # saves ptx files embedded in binary as <n>.ptx
-keep                                   0 # keep intermediate files created by GPGPU-Sim when interfacing with external programs
-gpgpu_ptx_save_converted_ptxplus                    0 # Saved converted ptxplus to a file
-ptx_opcode_latency_int         4,13,4,5,145 # Opcode latencies for integers <ADD,MAX,MUL,MAD,DIV>Default 1,1,19,25,145
-ptx_opcode_latency_fp          4,13,4,5,39 # Opcode latencies for single precision floating points <ADD,MAX,MUL,MAD,DIV>Default 1,1,1,1,30
-ptx_opcode_latency_dp         8,19,8,8,330 # Opcode latencies for double precision floating points <ADD,MAX,MUL,MAD,DIV>Default 8,8,8,8,335
-ptx_opcode_initiation_int            1,2,2,1,8 # Opcode initiation intervals for integers <ADD,MAX,MUL,MAD,DIV>Default 1,1,4,4,32
-ptx_opcode_initiation_fp            1,2,1,1,4 # Opcode initiation intervals for single precision floating points <ADD,MAX,MUL,MAD,DIV>Default 1,1,1,1,5
-ptx_opcode_initiation_dp         8,16,8,8,130 # Opcode initiation intervals for double precision floating points <ADD,MAX,MUL,MAD,DIV>Default 8,8,8,8,130
DRAM Timing Options:
nbk                                    16 # number of banks
CCD                                     2 # column to column delay
RRD                                     6 # minimal delay between activation of rows in different banks
RCD                                    12 # row to column delay
RAS                                    28 # time needed to activate row
RP                                     12 # time needed to precharge (deactivate) row
RC                                     40 # row cycle time
CDLR                                    5 # switching from write to read (changes tWTR)
WR                                     12 # last data-in to row precharge
CL                                     12 # CAS latency
WL                                      4 # Write latency
nbkgrp                                  4 # number of bank groups
CCDL                                    3 # column to column delay between accesses to different bank groups
RTPL                                    2 # read to precharge delay between accesses to different bank groups
Total number of memory sub partition = 12
addr_dec_mask[CHIP]  = 0000000000000000 	high:64 low:0
addr_dec_mask[BK]    = 000000000000e100 	high:16 low:8
addr_dec_mask[ROW]   = 000000000fff0000 	high:28 low:16
addr_dec_mask[COL]   = 0000000000001eff 	high:13 low:0
addr_dec_mask[BURST] = 000000000000003f 	high:6 low:0
sub_partition_id_mask = 0000000000000100
GPGPU-Sim uArch: clock freqs: 700000000.000000:700000000.000000:700000000.000000:924000000.000000
GPGPU-Sim uArch: clock periods: 0.00000000142857142857:0.00000000142857142857:0.00000000142857142857:0.00000000108225108225
*** Initializing Memory Statistics ***
GPGPU-Sim uArch: interconnect node map (shaderID+MemID to icntID)
GPGPU-Sim uArch: Memory nodes ID start from index: 15
GPGPU-Sim uArch:    0   1   2   3   4
GPGPU-Sim uArch:    5   6   7   8   9
GPGPU-Sim uArch:   10  11  12  13  14
GPGPU-Sim uArch:   15  16  17  18  19
GPGPU-Sim uArch:   20  21  22  23  24
GPGPU-Sim uArch:   25  26
GPGPU-Sim uArch: interconnect node reverse map (icntID to shaderID+MemID)
GPGPU-Sim uArch: Memory nodes start from ID: 15
GPGPU-Sim uArch:    0   1   2   3   4
GPGPU-Sim uArch:    5   6   7   8   9
GPGPU-Sim uArch:   10  11  12  13  14
GPGPU-Sim uArch:   15  16  17  18  19
GPGPU-Sim uArch:   20  21  22  23  24
GPGPU-Sim uArch:   25  26
42f7b457b4f8bc5f243a2d9180567621  /home/scratch/adwait/applications/benchmarks/CUDA/BlackScholes/gpgpu_ptx_sim__BlackScholes
GPGPU-Sim uArch: performance model initialization complete.
GPGPU-Sim PTX: __cudaRegisterFatBinary, fat_cubin_handle = 1, filename=BlackScholes.cu
self exe links to: /home/scratch/adwait/applications/benchmarks/CUDA/BlackScholes/gpgpu_ptx_sim__BlackScholes
Running md5sum using "md5sum /home/scratch/adwait/applications/benchmarks/CUDA/BlackScholes/gpgpu_ptx_sim__BlackScholes "
Running cuobjdump using "$CUDA_INSTALL_PATH/bin/cuobjdump -ptx -elf -sass /home/scratch/adwait/applications/benchmarks/CUDA/BlackScholes/gpgpu_ptx_sim__BlackScholes > _cuobjdump_complete_output_oqJBYJ"
Parsing file _cuobjdump_complete_output_oqJBYJ
######### cuobjdump parser ########
## Adding new section ELF
Adding arch: sm_20
Adding identifier: BlackScholes.cu
## Adding new section PTX
Adding ptx filename: _cuobjdump_1.ptx
Adding arch: sm_20
Adding identifier: BlackScholes.cu
Done parsing!!!
GPGPU-Sim PTX: __cudaRegisterFunction _Z15BlackScholesGPUPfS_S_S_S_ffi : hostFun 0x0x4050ed, fat_cubin_handle = 1
GPGPU-Sim PTX: instruction assembly for function '_Z15BlackScholesGPUPfS_S_S_S_ffi'...   done.
GPGPU-Sim PTX: finding reconvergence points for '_Z15BlackScholesGPUPfS_S_S_S_ffi'...
GPGPU-Sim PTX: Finding dominators for '_Z15BlackScholesGPUPfS_S_S_S_ffi'...
GPGPU-Sim PTX: Finding immediate dominators for '_Z15BlackScholesGPUPfS_S_S_S_ffi'...
GPGPU-Sim PTX: Finding postdominators for '_Z15BlackScholesGPUPfS_S_S_S_ffi'...
GPGPU-Sim PTX: Finding immediate postdominators for '_Z15BlackScholesGPUPfS_S_S_S_ffi'...
GPGPU-Sim PTX: pre-decoding instructions for '_Z15BlackScholesGPUPfS_S_S_S_ffi'...
GPGPU-Sim PTX: reconvergence points for _Z15BlackScholesGPUPfS_S_S_S_ffi...
GPGPU-Sim PTX:  1 (potential) branch divergence @  PC=0x040 (_1.ptx:76) @%p1 bra $Lt_0_2818;
GPGPU-Sim PTX:    immediate post dominator      @  PC=0x3f8 (_1.ptx:200) exit;
GPGPU-Sim PTX:  2 (potential) branch divergence @  PC=0x3f0 (_1.ptx:197) @%p4 bra $Lt_0_3330;
GPGPU-Sim PTX:    immediate post dominator      @  PC=0x3f8 (_1.ptx:200) exit;
GPGPU-Sim PTX: ... end of reconvergence points for _Z15BlackScholesGPUPfS_S_S_S_ffi
GPGPU-Sim PTX: ... done pre-decoding instructions for '_Z15BlackScholesGPUPfS_S_S_S_ffi'.
GPGPU-Sim PTX: finished parsing EMBEDDED .ptx file _1.ptx
Adding _cuobjdump_1.ptx with cubin handle 1
GPGPU-Sim PTX: extracting embedded .ptx to temporary file "_ptx_Weo4pN"
Running: cat _ptx_Weo4pN | sed 's/.version 1.5/.version 1.4/' | sed 's/, texmode_independent//' | sed 's/\(\.extern \.const\[1\] .b8 \w\+\)\[\]/\1\[1\]/' | sed 's/const\[.\]/const\[0\]/g' > _ptx2_LzHURQ
GPGPU-Sim PTX: generating ptxinfo using "$CUDA_INSTALL_PATH/bin/ptxas --gpu-name=sm_20 -v _ptx2_LzHURQ --output-file  /dev/null 2> _ptx_Weo4pNinfo"
GPGPU-Sim PTX: Kernel '_Z15BlackScholesGPUPfS_S_S_S_ffi' : regs=31, lmem=0, smem=0, cmem=128
GPGPU-Sim PTX: removing ptxinfo using "rm -f _ptx_Weo4pN _ptx2_LzHURQ _ptx_Weo4pNinfo"
GPGPU-Sim PTX: loading globals with explicit initializers... 
GPGPU-Sim PTX: finished loading globals (0 bytes total).
GPGPU-Sim PTX: loading constants with explicit initializers...  done.
Initializing data...
...allocating CPU memory for options.
...allocating GPU memory for options.
...generating input data in CPU mem.
...copying input data to GPU mem.
Data init done.
Executing Black-Scholes GPU kernel (1 iterations)...
GPGPU-Sim: synchronize waiting for inactive GPU simulation
GPGPU-Sim API: Stream Manager State
GPGPU-Sim: detected inactive GPU simulation thread

GPGPU-Sim PTX: cudaLaunch for 0x0x4050ed (mode=performance simulation) on stream 0
GPGPU-Sim PTX: pushing kernel '_Z15BlackScholesGPUPfS_S_S_S_ffi' to stream 0, gridDim= (480,1,1) blockDim = (128,1,1) 
kernel '_Z15BlackScholesGPUPfS_S_S_S_ffi' transfer to GPU hardware scheduler
GPGPU-Sim uArch: Shader 1 bind to kernel 1 '_Z15BlackScholesGPUPfS_S_S_S_ffi'
GPGPU-Sim uArch: CTA/core = 8, limited by: regs cta_limit
GPGPU-Sim uArch: core:  1, cta: 0 initialized @(1,0)
GPGPU-Sim uArch: Shader 2 bind to kernel 1 '_Z15BlackScholesGPUPfS_S_S_S_ffi'
GPGPU-Sim uArch: core:  2, cta: 0 initialized @(1,0)
GPGPU-Sim uArch: Shader 3 bind to kernel 1 '_Z15BlackScholesGPUPfS_S_S_S_ffi'
GPGPU-Sim uArch: core:  3, cta: 0 initialized @(1,0)
GPGPU-Sim uArch: Shader 4 bind to kernel 1 '_Z15BlackScholesGPUPfS_S_S_S_ffi'
GPGPU-Sim uArch: core:  4, cta: 0 initialized @(1,0)
GPGPU-Sim uArch: Shader 5 bind to kernel 1 '_Z15BlackScholesGPUPfS_S_S_S_ffi'
GPGPU-Sim uArch: core:  5, cta: 0 initialized @(1,0)
GPGPU-Sim uArch: Shader 6 bind to kernel 1 '_Z15BlackScholesGPUPfS_S_S_S_ffi'
GPGPU-Sim uArch: core:  6, cta: 0 initialized @(1,0)
GPGPU-Sim uArch: Shader 7 bind to kernel 1 '_Z15BlackScholesGPUPfS_S_S_S_ffi'
GPGPU-Sim uArch: core:  7, cta: 0 initialized @(1,0)
GPGPU-Sim uArch: Shader 8 bind to kernel 1 '_Z15BlackScholesGPUPfS_S_S_S_ffi'
GPGPU-Sim uArch: core:  8, cta: 0 initialized @(1,0)
GPGPU-Sim uArch: Shader 9 bind to kernel 1 '_Z15BlackScholesGPUPfS_S_S_S_ffi'
GPGPU-Sim uArch: core:  9, cta: 0 initialized @(1,0)
GPGPU-Sim uArch: Shader 10 bind to kernel 1 '_Z15BlackScholesGPUPfS_S_S_S_ffi'
GPGPU-Sim uArch: core: 10, cta: 0 initialized @(1,0)
GPGPU-Sim uArch: Shader 11 bind to kernel 1 '_Z15BlackScholesGPUPfS_S_S_S_ffi'
GPGPU-Sim uArch: core: 11, cta: 0 initialized @(1,0)
GPGPU-Sim uArch: Shader 12 bind to kernel 1 '_Z15BlackScholesGPUPfS_S_S_S_ffi'
GPGPU-Sim uArch: core: 12, cta: 0 initialized @(1,0)
GPGPU-Sim uArch: Shader 13 bind to kernel 1 '_Z15BlackScholesGPUPfS_S_S_S_ffi'
GPGPU-Sim uArch: core: 13, cta: 0 initialized @(1,0)
GPGPU-Sim uArch: Shader 14 bind to kernel 1 '_Z15BlackScholesGPUPfS_S_S_S_ffi'
GPGPU-Sim uArch: core: 14, cta: 0 initialized @(1,0)
GPGPU-Sim uArch: Shader 0 bind to kernel 1 '_Z15BlackScholesGPUPfS_S_S_S_ffi'
GPGPU-Sim uArch: core:  0, cta: 0 initialized @(1,0)
GPGPU-Sim uArch: core:  1, cta: 1 initialized @(2,0)
GPGPU-Sim uArch: core:  2, cta: 1 initialized @(2,0)
GPGPU-Sim uArch: core:  3, cta: 1 initialized @(2,0)
GPGPU-Sim uArch: core:  4, cta: 1 initialized @(2,0)
GPGPU-Sim uArch: core:  5, cta: 1 initialized @(2,0)
GPGPU-Sim uArch: core:  6, cta: 1 initialized @(2,0)
GPGPU-Sim uArch: core:  7, cta: 1 initialized @(2,0)
GPGPU-Sim uArch: core:  8, cta: 1 initialized @(2,0)
GPGPU-Sim uArch: core:  9, cta: 1 initialized @(2,0)
GPGPU-Sim uArch: core: 10, cta: 1 initialized @(2,0)
GPGPU-Sim uArch: core: 11, cta: 1 initialized @(2,0)
GPGPU-Sim uArch: core: 12, cta: 1 initialized @(2,0)
GPGPU-Sim uArch: core: 13, cta: 1 initialized @(2,0)
GPGPU-Sim uArch: core: 14, cta: 1 initialized @(2,0)
GPGPU-Sim uArch: core:  0, cta: 1 initialized @(2,0)
GPGPU-Sim uArch: core:  1, cta: 2 initialized @(3,0)
GPGPU-Sim uArch: core:  2, cta: 2 initialized @(3,0)
GPGPU-Sim uArch: core:  3, cta: 2 initialized @(3,0)
GPGPU-Sim uArch: core:  4, cta: 2 initialized @(3,0)
GPGPU-Sim uArch: core:  5, cta: 2 initialized @(3,0)
GPGPU-Sim uArch: core:  6, cta: 2 initialized @(3,0)
GPGPU-Sim uArch: core:  7, cta: 2 initialized @(3,0)
GPGPU-Sim uArch: core:  8, cta: 2 initialized @(3,0)
GPGPU-Sim uArch: core:  9, cta: 2 initialized @(3,0)
GPGPU-Sim uArch: core: 10, cta: 2 initialized @(3,0)
GPGPU-Sim uArch: core: 11, cta: 2 initialized @(3,0)
GPGPU-Sim uArch: core: 12, cta: 2 initialized @(3,0)
GPGPU-Sim uArch: core: 13, cta: 2 initialized @(3,0)
GPGPU-Sim uArch: core: 14, cta: 2 initialized @(3,0)
GPGPU-Sim uArch: core:  0, cta: 2 initialized @(3,0)
GPGPU-Sim uArch: core:  1, cta: 3 initialized @(4,0)
GPGPU-Sim uArch: core:  2, cta: 3 initialized @(4,0)
GPGPU-Sim uArch: core:  3, cta: 3 initialized @(4,0)
GPGPU-Sim uArch: core:  4, cta: 3 initialized @(4,0)
GPGPU-Sim uArch: core:  5, cta: 3 initialized @(4,0)
GPGPU-Sim uArch: core:  6, cta: 3 initialized @(4,0)
GPGPU-Sim uArch: core:  7, cta: 3 initialized @(4,0)
GPGPU-Sim uArch: core:  8, cta: 3 initialized @(4,0)
GPGPU-Sim uArch: core:  9, cta: 3 initialized @(4,0)
GPGPU-Sim uArch: core: 10, cta: 3 initialized @(4,0)
GPGPU-Sim uArch: core: 11, cta: 3 initialized @(4,0)
GPGPU-Sim uArch: core: 12, cta: 3 initialized @(4,0)
GPGPU-Sim uArch: core: 13, cta: 3 initialized @(4,0)
GPGPU-Sim uArch: core: 14, cta: 3 initialized @(4,0)
GPGPU-Sim uArch: core:  0, cta: 3 initialized @(4,0)
GPGPU-Sim uArch: core:  1, cta: 4 initialized @(5,0)
GPGPU-Sim uArch: core:  2, cta: 4 initialized @(5,0)
GPGPU-Sim uArch: core:  3, cta: 4 initialized @(5,0)
GPGPU-Sim uArch: core:  4, cta: 4 initialized @(5,0)
GPGPU-Sim uArch: core:  5, cta: 4 initialized @(5,0)
GPGPU-Sim uArch: core:  6, cta: 4 initialized @(5,0)
GPGPU-Sim uArch: core:  7, cta: 4 initialized @(5,0)
GPGPU-Sim uArch: core:  8, cta: 4 initialized @(5,0)
GPGPU-Sim uArch: core:  9, cta: 4 initialized @(5,0)
GPGPU-Sim uArch: core: 10, cta: 4 initialized @(5,0)
GPGPU-Sim uArch: core: 11, cta: 4 initialized @(5,0)
GPGPU-Sim uArch: core: 12, cta: 4 initialized @(5,0)
GPGPU-Sim uArch: core: 13, cta: 4 initialized @(5,0)
GPGPU-Sim uArch: core: 14, cta: 4 initialized @(5,0)
GPGPU-Sim uArch: core:  0, cta: 4 initialized @(5,0)
GPGPU-Sim uArch: core:  1, cta: 5 initialized @(6,0)
GPGPU-Sim uArch: core:  2, cta: 5 initialized @(6,0)
GPGPU-Sim uArch: core:  3, cta: 5 initialized @(6,0)
GPGPU-Sim uArch: core:  4, cta: 5 initialized @(6,0)
GPGPU-Sim uArch: core:  5, cta: 5 initialized @(6,0)
GPGPU-Sim uArch: core:  6, cta: 5 initialized @(6,0)
GPGPU-Sim uArch: core:  7, cta: 5 initialized @(6,0)
GPGPU-Sim uArch: core:  8, cta: 5 initialized @(6,0)
GPGPU-Sim uArch: core:  9, cta: 5 initialized @(6,0)
GPGPU-Sim uArch: core: 10, cta: 5 initialized @(6,0)
GPGPU-Sim uArch: core: 11, cta: 5 initialized @(6,0)
GPGPU-Sim uArch: core: 12, cta: 5 initialized @(6,0)
GPGPU-Sim uArch: core: 13, cta: 5 initialized @(6,0)
GPGPU-Sim uArch: core: 14, cta: 5 initialized @(6,0)
GPGPU-Sim uArch: core:  0, cta: 5 initialized @(6,0)
GPGPU-Sim uArch: core:  1, cta: 6 initialized @(7,0)
GPGPU-Sim uArch: core:  2, cta: 6 initialized @(7,0)
GPGPU-Sim uArch: core:  3, cta: 6 initialized @(7,0)
GPGPU-Sim uArch: core:  4, cta: 6 initialized @(7,0)
GPGPU-Sim uArch: core:  5, cta: 6 initialized @(7,0)
GPGPU-Sim uArch: core:  6, cta: 6 initialized @(7,0)
GPGPU-Sim uArch: core:  7, cta: 6 initialized @(7,0)
GPGPU-Sim uArch: core:  8, cta: 6 initialized @(7,0)
GPGPU-Sim uArch: core:  9, cta: 6 initialized @(7,0)
GPGPU-Sim uArch: core: 10, cta: 6 initialized @(7,0)
GPGPU-Sim uArch: core: 11, cta: 6 initialized @(7,0)
GPGPU-Sim uArch: core: 12, cta: 6 initialized @(7,0)
GPGPU-Sim uArch: core: 13, cta: 6 initialized @(7,0)
GPGPU-Sim uArch: core: 14, cta: 6 initialized @(7,0)
GPGPU-Sim uArch: core:  0, cta: 6 initialized @(7,0)
GPGPU-Sim uArch: core:  1, cta: 7 initialized @(8,0)
GPGPU-Sim uArch: core:  2, cta: 7 initialized @(8,0)
GPGPU-Sim uArch: core:  3, cta: 7 initialized @(8,0)
GPGPU-Sim uArch: core:  4, cta: 7 initialized @(8,0)
GPGPU-Sim uArch: core:  5, cta: 7 initialized @(8,0)
GPGPU-Sim uArch: core:  6, cta: 7 initialized @(8,0)
GPGPU-Sim uArch: core:  7, cta: 7 initialized @(8,0)
GPGPU-Sim uArch: core:  8, cta: 7 initialized @(8,0)
GPGPU-Sim uArch: core:  9, cta: 7 initialized @(8,0)
GPGPU-Sim uArch: core: 10, cta: 7 initialized @(8,0)
GPGPU-Sim uArch: core: 11, cta: 7 initialized @(8,0)
GPGPU-Sim uArch: core: 12, cta: 7 initialized @(8,0)
GPGPU-Sim uArch: core: 13, cta: 7 initialized @(8,0)
GPGPU-Sim uArch: core: 14, cta: 7 initialized @(8,0)
GPGPU-Sim uArch: core:  0, cta: 7 initialized @(8,0)
GPGPU-Sim PTX: 100000 instructions simulated : ctaid=(83,0,0) tid=(127,0,0)
GPGPU-Sim uArch: cycles simulated: 500  inst.: 92160 (ipc=184.3) sim_rate=92160 (inst/sec) elapsed = 0:0:00:01 / Wed May  1 12:42:39 2019
GPGPU-Sim PTX: 200000 instructions simulated : ctaid=(110,0,0) tid=(31,0,0)
GPGPU-Sim uArch: cycles simulated: 1000  inst.: 242336 (ipc=242.3) sim_rate=121168 (inst/sec) elapsed = 0:0:00:02 / Wed May  1 12:42:40 2019
GPGPU-Sim PTX: 300000 instructions simulated : ctaid=(115,0,0) tid=(63,0,0)
GPGPU-Sim PTX: 400000 instructions simulated : ctaid=(50,0,0) tid=(63,0,0)
GPGPU-Sim PTX: 500000 instructions simulated : ctaid=(2,0,0) tid=(95,0,0)
GPGPU-Sim PTX: 600000 instructions simulated : ctaid=(107,0,0) tid=(95,0,0)
GPGPU-Sim uArch: cycles simulated: 2500  inst.: 641984 (ipc=256.8) sim_rate=213994 (inst/sec) elapsed = 0:0:00:03 / Wed May  1 12:42:41 2019
GPGPU-Sim PTX: 700000 instructions simulated : ctaid=(38,0,0) tid=(127,0,0)
GPGPU-Sim PTX: 800000 instructions simulated : ctaid=(3,0,0) tid=(31,0,0)
GPGPU-Sim PTX: 900000 instructions simulated : ctaid=(26,0,0) tid=(63,0,0)
GPGPU-Sim PTX: 1000000 instructions simulated : ctaid=(65,0,0) tid=(31,0,0)
GPGPU-Sim PTX: 1100000 instructions simulated : ctaid=(69,0,0) tid=(127,0,0)
GPGPU-Sim PTX: 1200000 instructions simulated : ctaid=(28,0,0) tid=(31,0,0)
GPGPU-Sim PTX: 1300000 instructions simulated : ctaid=(30,0,0) tid=(95,0,0)
GPGPU-Sim PTX: 1400000 instructions simulated : ctaid=(97,0,0) tid=(95,0,0)
GPGPU-Sim PTX: 1500000 instructions simulated : ctaid=(74,0,0) tid=(31,0,0)
GPGPU-Sim PTX: 1600000 instructions simulated : ctaid=(38,0,0) tid=(31,0,0)
GPGPU-Sim uArch: cycles simulated: 4000  inst.: 1592832 (ipc=398.2) sim_rate=398208 (inst/sec) elapsed = 0:0:00:04 / Wed May  1 12:42:42 2019
GPGPU-Sim PTX: 1700000 instructions simulated : ctaid=(71,0,0) tid=(95,0,0)
GPGPU-Sim PTX: 1800000 instructions simulated : ctaid=(91,0,0) tid=(127,0,0)
GPGPU-Sim uArch: cycles simulated: 4500  inst.: 1827808 (ipc=406.2) sim_rate=365561 (inst/sec) elapsed = 0:0:00:05 / Wed May  1 12:42:43 2019
GPGPU-Sim PTX: 1900000 instructions simulated : ctaid=(13,0,0) tid=(95,0,0)
GPGPU-Sim PTX: 2000000 instructions simulated : ctaid=(65,0,0) tid=(63,0,0)
GPGPU-Sim PTX: 2100000 instructions simulated : ctaid=(24,0,0) tid=(95,0,0)
GPGPU-Sim PTX: 2200000 instructions simulated : ctaid=(26,0,0) tid=(127,0,0)
GPGPU-Sim PTX: 2300000 instructions simulated : ctaid=(12,0,0) tid=(31,0,0)
GPGPU-Sim PTX: 2400000 instructions simulated : ctaid=(79,0,0) tid=(31,0,0)
GPGPU-Sim uArch: cycles simulated: 5500  inst.: 2394016 (ipc=435.3) sim_rate=399002 (inst/sec) elapsed = 0:0:00:06 / Wed May  1 12:42:44 2019
GPGPU-Sim PTX: 2500000 instructions simulated : ctaid=(2,0,0) tid=(127,0,0)
GPGPU-Sim PTX: 2600000 instructions simulated : ctaid=(21,0,0) tid=(127,0,0)
GPGPU-Sim PTX: 2700000 instructions simulated : ctaid=(43,0,0) tid=(127,0,0)
GPGPU-Sim uArch: cycles simulated: 6000  inst.: 2750336 (ipc=458.4) sim_rate=392905 (inst/sec) elapsed = 0:0:00:07 / Wed May  1 12:42:45 2019
GPGPU-Sim PTX: 2800000 instructions simulated : ctaid=(64,0,0) tid=(127,0,0)
GPGPU-Sim PTX: 2900000 instructions simulated : ctaid=(22,0,0) tid=(95,0,0)
GPGPU-Sim PTX: 3000000 instructions simulated : ctaid=(3,0,0) tid=(127,0,0)
GPGPU-Sim PTX: 3100000 instructions simulated : ctaid=(100,0,0) tid=(31,0,0)
GPGPU-Sim PTX: 3200000 instructions simulated : ctaid=(101,0,0) tid=(31,0,0)
GPGPU-Sim PTX: 3300000 instructions simulated : ctaid=(28,0,0) tid=(63,0,0)
GPGPU-Sim PTX: 3400000 instructions simulated : ctaid=(58,0,0) tid=(95,0,0)
GPGPU-Sim uArch: cycles simulated: 7000  inst.: 3427232 (ipc=489.6) sim_rate=428404 (inst/sec) elapsed = 0:0:00:08 / Wed May  1 12:42:46 2019
GPGPU-Sim PTX: 3500000 instructions simulated : ctaid=(28,0,0) tid=(127,0,0)
GPGPU-Sim PTX: 3600000 instructions simulated : ctaid=(44,0,0) tid=(31,0,0)
GPGPU-Sim PTX: 3700000 instructions simulated : ctaid=(23,0,0) tid=(31,0,0)
GPGPU-Sim PTX: 3800000 instructions simulated : ctaid=(13,0,0) tid=(63,0,0)
GPGPU-Sim PTX: 3900000 instructions simulated : ctaid=(3,0,0) tid=(127,0,0)
GPGPU-Sim PTX: 4000000 instructions simulated : ctaid=(46,0,0) tid=(63,0,0)
GPGPU-Sim PTX: 4100000 instructions simulated : ctaid=(53,0,0) tid=(63,0,0)
GPGPU-Sim uArch: cycles simulated: 8000  inst.: 4133856 (ipc=516.7) sim_rate=459317 (inst/sec) elapsed = 0:0:00:09 / Wed May  1 12:42:47 2019
GPGPU-Sim PTX: 4200000 instructions simulated : ctaid=(10,0,0) tid=(63,0,0)
GPGPU-Sim PTX: 4300000 instructions simulated : ctaid=(28,0,0) tid=(31,0,0)
GPGPU-Sim PTX: 4400000 instructions simulated : ctaid=(14,0,0) tid=(63,0,0)
GPGPU-Sim PTX: 4500000 instructions simulated : ctaid=(1,0,0) tid=(63,0,0)
GPGPU-Sim uArch: cycles simulated: 8500  inst.: 4493792 (ipc=528.7) sim_rate=449379 (inst/sec) elapsed = 0:0:00:10 / Wed May  1 12:42:48 2019
GPGPU-Sim PTX: 4600000 instructions simulated : ctaid=(46,0,0) tid=(31,0,0)
GPGPU-Sim PTX: 4700000 instructions simulated : ctaid=(14,0,0) tid=(127,0,0)
GPGPU-Sim PTX: 4800000 instructions simulated : ctaid=(80,0,0) tid=(95,0,0)
GPGPU-Sim PTX: 4900000 instructions simulated : ctaid=(50,0,0) tid=(95,0,0)
GPGPU-Sim PTX: 5000000 instructions simulated : ctaid=(74,0,0) tid=(127,0,0)
GPGPU-Sim PTX: 5100000 instructions simulated : ctaid=(113,0,0) tid=(95,0,0)
GPGPU-Sim PTX: 5200000 instructions simulated : ctaid=(103,0,0) tid=(31,0,0)
GPGPU-Sim uArch: cycles simulated: 9500  inst.: 5222144 (ipc=549.7) sim_rate=474740 (inst/sec) elapsed = 0:0:00:11 / Wed May  1 12:42:49 2019
GPGPU-Sim PTX: 5300000 instructions simulated : ctaid=(9,0,0) tid=(127,0,0)
GPGPU-Sim PTX: 5400000 instructions simulated : ctaid=(39,0,0) tid=(95,0,0)
GPGPU-Sim PTX: 5500000 instructions simulated : ctaid=(47,0,0) tid=(31,0,0)
GPGPU-Sim PTX: 5600000 instructions simulated : ctaid=(47,0,0) tid=(31,0,0)
GPGPU-Sim uArch: cycles simulated: 10000  inst.: 5581216 (ipc=558.1) sim_rate=465101 (inst/sec) elapsed = 0:0:00:12 / Wed May  1 12:42:50 2019
GPGPU-Sim PTX: 5700000 instructions simulated : ctaid=(41,0,0) tid=(95,0,0)
GPGPU-Sim PTX: 5800000 instructions simulated : ctaid=(41,0,0) tid=(63,0,0)
GPGPU-Sim PTX: 5900000 instructions simulated : ctaid=(17,0,0) tid=(31,0,0)
GPGPU-Sim PTX: 6000000 instructions simulated : ctaid=(22,0,0) tid=(95,0,0)
GPGPU-Sim PTX: 6100000 instructions simulated : ctaid=(57,0,0) tid=(95,0,0)
GPGPU-Sim PTX: 6200000 instructions simulated : ctaid=(104,0,0) tid=(95,0,0)
GPGPU-Sim PTX: 6300000 instructions simulated : ctaid=(44,0,0) tid=(127,0,0)
GPGPU-Sim uArch: cycles simulated: 11000  inst.: 6300896 (ipc=572.8) sim_rate=484684 (inst/sec) elapsed = 0:0:00:13 / Wed May  1 12:42:51 2019
GPGPU-Sim PTX: 6400000 instructions simulated : ctaid=(0,0,0) tid=(127,0,0)
GPGPU-Sim PTX: 6500000 instructions simulated : ctaid=(53,0,0) tid=(127,0,0)
GPGPU-Sim PTX: 6600000 instructions simulated : ctaid=(19,0,0) tid=(63,0,0)
GPGPU-Sim PTX: 6700000 instructions simulated : ctaid=(20,0,0) tid=(63,0,0)
GPGPU-Sim uArch: cycles simulated: 11500  inst.: 6665984 (ipc=579.7) sim_rate=476141 (inst/sec) elapsed = 0:0:00:14 / Wed May  1 12:42:52 2019
GPGPU-Sim PTX: 6800000 instructions simulated : ctaid=(81,0,0) tid=(31,0,0)
GPGPU-Sim PTX: 6900000 instructions simulated : ctaid=(44,0,0) tid=(63,0,0)
GPGPU-Sim PTX: 7000000 instructions simulated : ctaid=(74,0,0) tid=(95,0,0)
GPGPU-Sim PTX: 7100000 instructions simulated : ctaid=(14,0,0) tid=(95,0,0)
GPGPU-Sim PTX: 7200000 instructions simulated : ctaid=(69,0,0) tid=(95,0,0)
GPGPU-Sim PTX: 7300000 instructions simulated : ctaid=(35,0,0) tid=(95,0,0)
GPGPU-Sim PTX: 7400000 instructions simulated : ctaid=(88,0,0) tid=(31,0,0)
GPGPU-Sim uArch: cycles simulated: 12500  inst.: 7386560 (ipc=590.9) sim_rate=492437 (inst/sec) elapsed = 0:0:00:15 / Wed May  1 12:42:53 2019
GPGPU-Sim PTX: 7500000 instructions simulated : ctaid=(9,0,0) tid=(63,0,0)
GPGPU-Sim PTX: 7600000 instructions simulated : ctaid=(82,0,0) tid=(63,0,0)
GPGPU-Sim PTX: 7700000 instructions simulated : ctaid=(9,0,0) tid=(127,0,0)
GPGPU-Sim PTX: 7800000 instructions simulated : ctaid=(22,0,0) tid=(95,0,0)
GPGPU-Sim PTX: 7900000 instructions simulated : ctaid=(13,0,0) tid=(63,0,0)
GPGPU-Sim PTX: 8000000 instructions simulated : ctaid=(71,0,0) tid=(63,0,0)
GPGPU-Sim PTX: 8100000 instructions simulated : ctaid=(51,0,0) tid=(31,0,0)
GPGPU-Sim uArch: cycles simulated: 13500  inst.: 8115360 (ipc=601.1) sim_rate=507210 (inst/sec) elapsed = 0:0:00:16 / Wed May  1 12:42:54 2019
GPGPU-Sim PTX: 8200000 instructions simulated : ctaid=(30,0,0) tid=(63,0,0)
GPGPU-Sim PTX: 8300000 instructions simulated : ctaid=(46,0,0) tid=(63,0,0)
GPGPU-Sim PTX: 8400000 instructions simulated : ctaid=(35,0,0) tid=(63,0,0)
GPGPU-Sim PTX: 8500000 instructions simulated : ctaid=(17,0,0) tid=(95,0,0)
GPGPU-Sim uArch: cycles simulated: 14000  inst.: 8479808 (ipc=605.7) sim_rate=498812 (inst/sec) elapsed = 0:0:00:17 / Wed May  1 12:42:55 2019
GPGPU-Sim PTX: 8600000 instructions simulated : ctaid=(42,0,0) tid=(127,0,0)
GPGPU-Sim PTX: 8700000 instructions simulated : ctaid=(29,0,0) tid=(127,0,0)
GPGPU-Sim PTX: 8800000 instructions simulated : ctaid=(32,0,0) tid=(63,0,0)
GPGPU-Sim PTX: 8900000 instructions simulated : ctaid=(80,0,0) tid=(31,0,0)
GPGPU-Sim PTX: 9000000 instructions simulated : ctaid=(48,0,0) tid=(31,0,0)
GPGPU-Sim PTX: 9100000 instructions simulated : ctaid=(37,0,0) tid=(95,0,0)
GPGPU-Sim PTX: 9200000 instructions simulated : ctaid=(41,0,0) tid=(31,0,0)
GPGPU-Sim uArch: cycles simulated: 15000  inst.: 9192256 (ipc=612.8) sim_rate=510680 (inst/sec) elapsed = 0:0:00:18 / Wed May  1 12:42:56 2019
GPGPU-Sim PTX: 9300000 instructions simulated : ctaid=(2,0,0) tid=(95,0,0)
GPGPU-Sim PTX: 9400000 instructions simulated : ctaid=(24,0,0) tid=(31,0,0)
GPGPU-Sim PTX: 9500000 instructions simulated : ctaid=(42,0,0) tid=(63,0,0)
GPGPU-Sim uArch: cycles simulated: 15500  inst.: 9563072 (ipc=617.0) sim_rate=503319 (inst/sec) elapsed = 0:0:00:19 / Wed May  1 12:42:57 2019
GPGPU-Sim PTX: 9600000 instructions simulated : ctaid=(28,0,0) tid=(63,0,0)
GPGPU-Sim PTX: 9700000 instructions simulated : ctaid=(60,0,0) tid=(95,0,0)
GPGPU-Sim PTX: 9800000 instructions simulated : ctaid=(17,0,0) tid=(95,0,0)
GPGPU-Sim PTX: 9900000 instructions simulated : ctaid=(41,0,0) tid=(31,0,0)
GPGPU-Sim PTX: 10000000 instructions simulated : ctaid=(13,0,0) tid=(95,0,0)
GPGPU-Sim PTX: 10100000 instructions simulated : ctaid=(32,0,0) tid=(127,0,0)
GPGPU-Sim PTX: 10200000 instructions simulated : ctaid=(36,0,0) tid=(95,0,0)
GPGPU-Sim PTX: 10300000 instructions simulated : ctaid=(21,0,0) tid=(31,0,0)
GPGPU-Sim uArch: cycles simulated: 16500  inst.: 10284416 (ipc=623.3) sim_rate=514220 (inst/sec) elapsed = 0:0:00:20 / Wed May  1 12:42:58 2019
GPGPU-Sim PTX: 10400000 instructions simulated : ctaid=(46,0,0) tid=(127,0,0)
GPGPU-Sim PTX: 10500000 instructions simulated : ctaid=(81,0,0) tid=(95,0,0)
GPGPU-Sim PTX: 10600000 instructions simulated : ctaid=(1,0,0) tid=(31,0,0)
GPGPU-Sim uArch: cycles simulated: 17000  inst.: 10650752 (ipc=626.5) sim_rate=507178 (inst/sec) elapsed = 0:0:00:21 / Wed May  1 12:42:59 2019
GPGPU-Sim PTX: 10700000 instructions simulated : ctaid=(52,0,0) tid=(95,0,0)
GPGPU-Sim PTX: 10800000 instructions simulated : ctaid=(103,0,0) tid=(63,0,0)
GPGPU-Sim PTX: 10900000 instructions simulated : ctaid=(0,0,0) tid=(127,0,0)
GPGPU-Sim PTX: 11000000 instructions simulated : ctaid=(65,0,0) tid=(63,0,0)
GPGPU-Sim PTX: 11100000 instructions simulated : ctaid=(46,0,0) tid=(127,0,0)
GPGPU-Sim PTX: 11200000 instructions simulated : ctaid=(3,0,0) tid=(127,0,0)
GPGPU-Sim PTX: 11300000 instructions simulated : ctaid=(42,0,0) tid=(63,0,0)
GPGPU-Sim uArch: cycles simulated: 18000  inst.: 11361568 (ipc=631.2) sim_rate=516434 (inst/sec) elapsed = 0:0:00:22 / Wed May  1 12:43:00 2019
GPGPU-Sim PTX: 11400000 instructions simulated : ctaid=(75,0,0) tid=(95,0,0)
GPGPU-Sim PTX: 11500000 instructions simulated : ctaid=(54,0,0) tid=(63,0,0)
GPGPU-Sim PTX: 11600000 instructions simulated : ctaid=(40,0,0) tid=(95,0,0)
GPGPU-Sim PTX: 11700000 instructions simulated : ctaid=(54,0,0) tid=(95,0,0)
GPGPU-Sim uArch: cycles simulated: 18500  inst.: 11724896 (ipc=633.8) sim_rate=509778 (inst/sec) elapsed = 0:0:00:23 / Wed May  1 12:43:01 2019
GPGPU-Sim PTX: 11800000 instructions simulated : ctaid=(98,0,0) tid=(95,0,0)
GPGPU-Sim PTX: 11900000 instructions simulated : ctaid=(70,0,0) tid=(127,0,0)
GPGPU-Sim PTX: 12000000 instructions simulated : ctaid=(56,0,0) tid=(95,0,0)
GPGPU-Sim PTX: 12100000 instructions simulated : ctaid=(12,0,0) tid=(31,0,0)
GPGPU-Sim PTX: 12200000 instructions simulated : ctaid=(104,0,0) tid=(31,0,0)
GPGPU-Sim PTX: 12300000 instructions simulated : ctaid=(40,0,0) tid=(95,0,0)
GPGPU-Sim PTX: 12400000 instructions simulated : ctaid=(53,0,0) tid=(63,0,0)
GPGPU-Sim uArch: cycles simulated: 19500  inst.: 12455072 (ipc=638.7) sim_rate=518961 (inst/sec) elapsed = 0:0:00:24 / Wed May  1 12:43:02 2019
GPGPU-Sim PTX: 12500000 instructions simulated : ctaid=(32,0,0) tid=(63,0,0)
GPGPU-Sim PTX: 12600000 instructions simulated : ctaid=(63,0,0) tid=(63,0,0)
GPGPU-Sim PTX: 12700000 instructions simulated : ctaid=(32,0,0) tid=(31,0,0)
GPGPU-Sim PTX: 12800000 instructions simulated : ctaid=(0,0,0) tid=(127,0,0)
GPGPU-Sim uArch: cycles simulated: 20000  inst.: 12818656 (ipc=640.9) sim_rate=512746 (inst/sec) elapsed = 0:0:00:25 / Wed May  1 12:43:03 2019
GPGPU-Sim PTX: 12900000 instructions simulated : ctaid=(17,0,0) tid=(127,0,0)
GPGPU-Sim PTX: 13000000 instructions simulated : ctaid=(4,0,0) tid=(31,0,0)
GPGPU-Sim PTX: 13100000 instructions simulated : ctaid=(55,0,0) tid=(127,0,0)
GPGPU-Sim PTX: 13200000 instructions simulated : ctaid=(14,0,0) tid=(31,0,0)
GPGPU-Sim PTX: 13300000 instructions simulated : ctaid=(41,0,0) tid=(95,0,0)
GPGPU-Sim PTX: 13400000 instructions simulated : ctaid=(41,0,0) tid=(63,0,0)
GPGPU-Sim PTX: 13500000 instructions simulated : ctaid=(18,0,0) tid=(63,0,0)
GPGPU-Sim uArch: cycles simulated: 21000  inst.: 13548256 (ipc=645.2) sim_rate=521086 (inst/sec) elapsed = 0:0:00:26 / Wed May  1 12:43:04 2019
GPGPU-Sim PTX: 13600000 instructions simulated : ctaid=(30,0,0) tid=(127,0,0)
GPGPU-Sim PTX: 13700000 instructions simulated : ctaid=(35,0,0) tid=(127,0,0)
GPGPU-Sim PTX: 13800000 instructions simulated : ctaid=(47,0,0) tid=(95,0,0)
GPGPU-Sim PTX: 13900000 instructions simulated : ctaid=(32,0,0) tid=(95,0,0)
GPGPU-Sim PTX: 14000000 instructions simulated : ctaid=(37,0,0) tid=(31,0,0)
GPGPU-Sim PTX: 14100000 instructions simulated : ctaid=(38,0,0) tid=(31,0,0)
GPGPU-Sim PTX: 14200000 instructions simulated : ctaid=(64,0,0) tid=(31,0,0)
GPGPU-Sim uArch: cycles simulated: 22000  inst.: 14256832 (ipc=648.0) sim_rate=528030 (inst/sec) elapsed = 0:0:00:27 / Wed May  1 12:43:05 2019
GPGPU-Sim PTX: 14300000 instructions simulated : ctaid=(7,0,0) tid=(31,0,0)
GPGPU-Sim PTX: 14400000 instructions simulated : ctaid=(58,0,0) tid=(31,0,0)
GPGPU-Sim PTX: 14500000 instructions simulated : ctaid=(102,0,0) tid=(31,0,0)
GPGPU-Sim PTX: 14600000 instructions simulated : ctaid=(42,0,0) tid=(31,0,0)
GPGPU-Sim uArch: cycles simulated: 22500  inst.: 14626464 (ipc=650.1) sim_rate=522373 (inst/sec) elapsed = 0:0:00:28 / Wed May  1 12:43:06 2019
GPGPU-Sim PTX: 14700000 instructions simulated : ctaid=(22,0,0) tid=(31,0,0)
GPGPU-Sim PTX: 14800000 instructions simulated : ctaid=(87,0,0) tid=(95,0,0)
GPGPU-Sim PTX: 14900000 instructions simulated : ctaid=(60,0,0) tid=(95,0,0)
GPGPU-Sim PTX: 15000000 instructions simulated : ctaid=(29,0,0) tid=(31,0,0)
GPGPU-Sim PTX: 15100000 instructions simulated : ctaid=(80,0,0) tid=(127,0,0)
GPGPU-Sim PTX: 15200000 instructions simulated : ctaid=(15,0,0) tid=(31,0,0)
GPGPU-Sim PTX: 15300000 instructions simulated : ctaid=(6,0,0) tid=(63,0,0)
GPGPU-Sim uArch: cycles simulated: 23500  inst.: 15358720 (ipc=653.6) sim_rate=529611 (inst/sec) elapsed = 0:0:00:29 / Wed May  1 12:43:07 2019
GPGPU-Sim PTX: 15400000 instructions simulated : ctaid=(20,0,0) tid=(63,0,0)
GPGPU-Sim PTX: 15500000 instructions simulated : ctaid=(62,0,0) tid=(95,0,0)
GPGPU-Sim PTX: 15600000 instructions simulated : ctaid=(11,0,0) tid=(95,0,0)
GPGPU-Sim PTX: 15700000 instructions simulated : ctaid=(27,0,0) tid=(63,0,0)
GPGPU-Sim uArch: cycles simulated: 24000  inst.: 15718272 (ipc=654.9) sim_rate=523942 (inst/sec) elapsed = 0:0:00:30 / Wed May  1 12:43:08 2019
GPGPU-Sim PTX: 15800000 instructions simulated : ctaid=(86,0,0) tid=(31,0,0)
GPGPU-Sim PTX: 15900000 instructions simulated : ctaid=(2,0,0) tid=(63,0,0)
GPGPU-Sim PTX: 16000000 instructions simulated : ctaid=(40,0,0) tid=(63,0,0)
GPGPU-Sim PTX: 16100000 instructions simulated : ctaid=(85,0,0) tid=(63,0,0)
GPGPU-Sim PTX: 16200000 instructions simulated : ctaid=(6,0,0) tid=(127,0,0)
GPGPU-Sim PTX: 16300000 instructions simulated : ctaid=(48,0,0) tid=(127,0,0)
GPGPU-Sim PTX: 16400000 instructions simulated : ctaid=(69,0,0) tid=(63,0,0)
GPGPU-Sim uArch: cycles simulated: 25000  inst.: 16436608 (ipc=657.5) sim_rate=530213 (inst/sec) elapsed = 0:0:00:31 / Wed May  1 12:43:09 2019
GPGPU-Sim PTX: 16500000 instructions simulated : ctaid=(13,0,0) tid=(63,0,0)
GPGPU-Sim PTX: 16600000 instructions simulated : ctaid=(9,0,0) tid=(31,0,0)
GPGPU-Sim PTX: 16700000 instructions simulated : ctaid=(58,0,0) tid=(127,0,0)
GPGPU-Sim PTX: 16800000 instructions simulated : ctaid=(4,0,0) tid=(127,0,0)
GPGPU-Sim uArch: cycles simulated: 25500  inst.: 16801472 (ipc=658.9) sim_rate=525046 (inst/sec) elapsed = 0:0:00:32 / Wed May  1 12:43:10 2019
GPGPU-Sim PTX: 16900000 instructions simulated : ctaid=(42,0,0) tid=(95,0,0)
GPGPU-Sim PTX: 17000000 instructions simulated : ctaid=(67,0,0) tid=(63,0,0)
GPGPU-Sim PTX: 17100000 instructions simulated : ctaid=(49,0,0) tid=(63,0,0)
GPGPU-Sim PTX: 17200000 instructions simulated : ctaid=(119,0,0) tid=(31,0,0)
GPGPU-Sim PTX: 17300000 instructions simulated : ctaid=(51,0,0) tid=(127,0,0)
GPGPU-Sim PTX: 17400000 instructions simulated : ctaid=(97,0,0) tid=(95,0,0)
GPGPU-Sim PTX: 17500000 instructions simulated : ctaid=(46,0,0) tid=(95,0,0)
GPGPU-Sim uArch: cycles simulated: 26500  inst.: 17532992 (ipc=661.6) sim_rate=531302 (inst/sec) elapsed = 0:0:00:33 / Wed May  1 12:43:11 2019
GPGPU-Sim PTX: 17600000 instructions simulated : ctaid=(54,0,0) tid=(31,0,0)
GPGPU-Sim PTX: 17700000 instructions simulated : ctaid=(74,0,0) tid=(95,0,0)
GPGPU-Sim PTX: 17800000 instructions simulated : ctaid=(71,0,0) tid=(95,0,0)
GPGPU-Sim PTX: 17900000 instructions simulated : ctaid=(47,0,0) tid=(95,0,0)
GPGPU-Sim uArch: cycles simulated: 27000  inst.: 17894496 (ipc=662.8) sim_rate=526308 (inst/sec) elapsed = 0:0:00:34 / Wed May  1 12:43:12 2019
GPGPU-Sim PTX: 18000000 instructions simulated : ctaid=(26,0,0) tid=(63,0,0)
GPGPU-Sim PTX: 18100000 instructions simulated : ctaid=(31,0,0) tid=(31,0,0)
GPGPU-Sim PTX: 18200000 instructions simulated : ctaid=(8,0,0) tid=(95,0,0)
GPGPU-Sim PTX: 18300000 instructions simulated : ctaid=(85,0,0) tid=(95,0,0)
GPGPU-Sim PTX: 18400000 instructions simulated : ctaid=(50,0,0) tid=(63,0,0)
GPGPU-Sim PTX: 18500000 instructions simulated : ctaid=(52,0,0) tid=(127,0,0)
GPGPU-Sim PTX: 18600000 instructions simulated : ctaid=(61,0,0) tid=(63,0,0)
GPGPU-Sim uArch: cycles simulated: 28000  inst.: 18612832 (ipc=664.7) sim_rate=531795 (inst/sec) elapsed = 0:0:00:35 / Wed May  1 12:43:13 2019
GPGPU-Sim PTX: 18700000 instructions simulated : ctaid=(54,0,0) tid=(31,0,0)
GPGPU-Sim PTX: 18800000 instructions simulated : ctaid=(19,0,0) tid=(95,0,0)
GPGPU-Sim PTX: 18900000 instructions simulated : ctaid=(16,0,0) tid=(31,0,0)
GPGPU-Sim PTX: 19000000 instructions simulated : ctaid=(14,0,0) tid=(31,0,0)
GPGPU-Sim PTX: 19100000 instructions simulated : ctaid=(47,0,0) tid=(95,0,0)
GPGPU-Sim PTX: 19200000 instructions simulated : ctaid=(21,0,0) tid=(31,0,0)
GPGPU-Sim PTX: 19300000 instructions simulated : ctaid=(2,0,0) tid=(63,0,0)
GPGPU-Sim uArch: cycles simulated: 29000  inst.: 19330496 (ipc=666.6) sim_rate=536958 (inst/sec) elapsed = 0:0:00:36 / Wed May  1 12:43:14 2019
GPGPU-Sim PTX: 19400000 instructions simulated : ctaid=(18,0,0) tid=(127,0,0)
GPGPU-Sim PTX: 19500000 instructions simulated : ctaid=(40,0,0) tid=(127,0,0)
GPGPU-Sim PTX: 19600000 instructions simulated : ctaid=(119,0,0) tid=(31,0,0)
GPGPU-Sim PTX: 19700000 instructions simulated : ctaid=(3,0,0) tid=(127,0,0)
GPGPU-Sim uArch: cycles simulated: 29500  inst.: 19697344 (ipc=667.7) sim_rate=532360 (inst/sec) elapsed = 0:0:00:37 / Wed May  1 12:43:15 2019
GPGPU-Sim PTX: 19800000 instructions simulated : ctaid=(18,0,0) tid=(31,0,0)
GPGPU-Sim PTX: 19900000 instructions simulated : ctaid=(72,0,0) tid=(127,0,0)
GPGPU-Sim PTX: 20000000 instructions simulated : ctaid=(21,0,0) tid=(95,0,0)
GPGPU-Sim PTX: 20100000 instructions simulated : ctaid=(33,0,0) tid=(31,0,0)
GPGPU-Sim PTX: 20200000 instructions simulated : ctaid=(7,0,0) tid=(63,0,0)
GPGPU-Sim PTX: 20300000 instructions simulated : ctaid=(80,0,0) tid=(95,0,0)
GPGPU-Sim PTX: 20400000 instructions simulated : ctaid=(50,0,0) tid=(63,0,0)
GPGPU-Sim uArch: cycles simulated: 30500  inst.: 20421280 (ipc=669.6) sim_rate=537402 (inst/sec) elapsed = 0:0:00:38 / Wed May  1 12:43:16 2019
GPGPU-Sim PTX: 20500000 instructions simulated : ctaid=(24,0,0) tid=(95,0,0)
GPGPU-Sim PTX: 20600000 instructions simulated : ctaid=(40,0,0) tid=(63,0,0)
GPGPU-Sim PTX: 20700000 instructions simulated : ctaid=(88,0,0) tid=(31,0,0)
GPGPU-Sim PTX: 20800000 instructions simulated : ctaid=(12,0,0) tid=(95,0,0)
GPGPU-Sim uArch: cycles simulated: 31000  inst.: 20787936 (ipc=670.6) sim_rate=533024 (inst/sec) elapsed = 0:0:00:39 / Wed May  1 12:43:17 2019
GPGPU-Sim PTX: 20900000 instructions simulated : ctaid=(36,0,0) tid=(127,0,0)
GPGPU-Sim PTX: 21000000 instructions simulated : ctaid=(2,0,0) tid=(31,0,0)
GPGPU-Sim PTX: 21100000 instructions simulated : ctaid=(54,0,0) tid=(31,0,0)
GPGPU-Sim PTX: 21200000 instructions simulated : ctaid=(14,0,0) tid=(63,0,0)
GPGPU-Sim PTX: 21300000 instructions simulated : ctaid=(6,0,0) tid=(63,0,0)
GPGPU-Sim PTX: 21400000 instructions simulated : ctaid=(69,0,0) tid=(127,0,0)
GPGPU-Sim PTX: 21500000 instructions simulated : ctaid=(0,0,0) tid=(127,0,0)
GPGPU-Sim uArch: cycles simulated: 32000  inst.: 21504864 (ipc=672.0) sim_rate=537621 (inst/sec) elapsed = 0:0:00:40 / Wed May  1 12:43:18 2019
GPGPU-Sim PTX: 21600000 instructions simulated : ctaid=(26,0,0) tid=(127,0,0)
GPGPU-Sim PTX: 21700000 instructions simulated : ctaid=(2,0,0) tid=(31,0,0)
GPGPU-Sim PTX: 21800000 instructions simulated : ctaid=(28,0,0) tid=(63,0,0)
GPGPU-Sim uArch: cycles simulated: 32500  inst.: 21863968 (ipc=672.7) sim_rate=533267 (inst/sec) elapsed = 0:0:00:41 / Wed May  1 12:43:19 2019
GPGPU-Sim PTX: 21900000 instructions simulated : ctaid=(3,0,0) tid=(31,0,0)
GPGPU-Sim PTX: 22000000 instructions simulated : ctaid=(20,0,0) tid=(31,0,0)
GPGPU-Sim PTX: 22100000 instructions simulated : ctaid=(66,0,0) tid=(63,0,0)
GPGPU-Sim PTX: 22200000 instructions simulated : ctaid=(19,0,0) tid=(63,0,0)
GPGPU-Sim PTX: 22300000 instructions simulated : ctaid=(10,0,0) tid=(127,0,0)
GPGPU-Sim PTX: 22400000 instructions simulated : ctaid=(54,0,0) tid=(31,0,0)
GPGPU-Sim PTX: 22500000 instructions simulated : ctaid=(70,0,0) tid=(95,0,0)
GPGPU-Sim PTX: 22600000 instructions simulated : ctaid=(66,0,0) tid=(95,0,0)
GPGPU-Sim uArch: cycles simulated: 33500  inst.: 22588672 (ipc=674.3) sim_rate=537825 (inst/sec) elapsed = 0:0:00:42 / Wed May  1 12:43:20 2019
GPGPU-Sim PTX: 22700000 instructions simulated : ctaid=(43,0,0) tid=(95,0,0)
GPGPU-Sim PTX: 22800000 instructions simulated : ctaid=(33,0,0) tid=(127,0,0)
GPGPU-Sim PTX: 22900000 instructions simulated : ctaid=(27,0,0) tid=(63,0,0)
GPGPU-Sim uArch: cycles simulated: 34000  inst.: 22953312 (ipc=675.1) sim_rate=533797 (inst/sec) elapsed = 0:0:00:43 / Wed May  1 12:43:21 2019
GPGPU-Sim PTX: 23000000 instructions simulated : ctaid=(54,0,0) tid=(127,0,0)
GPGPU-Sim PTX: 23100000 instructions simulated : ctaid=(81,0,0) tid=(31,0,0)
GPGPU-Sim PTX: 23200000 instructions simulated : ctaid=(46,0,0) tid=(31,0,0)
GPGPU-Sim PTX: 23300000 instructions simulated : ctaid=(5,0,0) tid=(95,0,0)
GPGPU-Sim PTX: 23400000 instructions simulated : ctaid=(12,0,0) tid=(127,0,0)
GPGPU-Sim PTX: 23500000 instructions simulated : ctaid=(70,0,0) tid=(31,0,0)
GPGPU-Sim PTX: 23600000 instructions simulated : ctaid=(14,0,0) tid=(95,0,0)
GPGPU-Sim PTX: 23700000 instructions simulated : ctaid=(19,0,0) tid=(63,0,0)
GPGPU-Sim uArch: cycles simulated: 35000  inst.: 23691456 (ipc=676.9) sim_rate=538442 (inst/sec) elapsed = 0:0:00:44 / Wed May  1 12:43:22 2019
GPGPU-Sim PTX: 23800000 instructions simulated : ctaid=(21,0,0) tid=(95,0,0)
GPGPU-Sim PTX: 23900000 instructions simulated : ctaid=(37,0,0) tid=(95,0,0)
GPGPU-Sim PTX: 24000000 instructions simulated : ctaid=(70,0,0) tid=(63,0,0)
GPGPU-Sim PTX: 24100000 instructions simulated : ctaid=(30,0,0) tid=(95,0,0)
GPGPU-Sim PTX: 24200000 instructions simulated : ctaid=(46,0,0) tid=(63,0,0)
GPGPU-Sim PTX: 24300000 instructions simulated : ctaid=(21,0,0) tid=(95,0,0)
GPGPU-Sim PTX: 24400000 instructions simulated : ctaid=(22,0,0) tid=(31,0,0)
GPGPU-Sim uArch: cycles simulated: 36000  inst.: 24403904 (ipc=677.9) sim_rate=542308 (inst/sec) elapsed = 0:0:00:45 / Wed May  1 12:43:23 2019
GPGPU-Sim PTX: 24500000 instructions simulated : ctaid=(5,0,0) tid=(31,0,0)
GPGPU-Sim PTX: 24600000 instructions simulated : ctaid=(24,0,0) tid=(127,0,0)
GPGPU-Sim PTX: 24700000 instructions simulated : ctaid=(17,0,0) tid=(31,0,0)
GPGPU-Sim uArch: cycles simulated: 36500  inst.: 24762784 (ipc=678.4) sim_rate=538321 (inst/sec) elapsed = 0:0:00:46 / Wed May  1 12:43:24 2019
GPGPU-Sim PTX: 24800000 instructions simulated : ctaid=(29,0,0) tid=(31,0,0)
GPGPU-Sim PTX: 24900000 instructions simulated : ctaid=(39,0,0) tid=(31,0,0)
GPGPU-Sim PTX: 25000000 instructions simulated : ctaid=(37,0,0) tid=(63,0,0)
GPGPU-Sim PTX: 25100000 instructions simulated : ctaid=(39,0,0) tid=(127,0,0)
GPGPU-Sim PTX: 25200000 instructions simulated : ctaid=(0,0,0) tid=(95,0,0)
GPGPU-Sim PTX: 25300000 instructions simulated : ctaid=(61,0,0) tid=(63,0,0)
GPGPU-Sim PTX: 25400000 instructions simulated : ctaid=(70,0,0) tid=(63,0,0)
GPGPU-Sim PTX: 25500000 instructions simulated : ctaid=(63,0,0) tid=(31,0,0)
GPGPU-Sim uArch: cycles simulated: 37500  inst.: 25482432 (ipc=679.5) sim_rate=542179 (inst/sec) elapsed = 0:0:00:47 / Wed May  1 12:43:25 2019
GPGPU-Sim PTX: 25600000 instructions simulated : ctaid=(41,0,0) tid=(127,0,0)
GPGPU-Sim PTX: 25700000 instructions simulated : ctaid=(85,0,0) tid=(31,0,0)
GPGPU-Sim PTX: 25800000 instructions simulated : ctaid=(17,0,0) tid=(127,0,0)
GPGPU-Sim uArch: cycles simulated: 38000  inst.: 25848512 (ipc=680.2) sim_rate=538510 (inst/sec) elapsed = 0:0:00:48 / Wed May  1 12:43:26 2019
GPGPU-Sim PTX: 25900000 instructions simulated : ctaid=(6,0,0) tid=(63,0,0)
GPGPU-Sim PTX: 26000000 instructions simulated : ctaid=(51,0,0) tid=(95,0,0)
GPGPU-Sim PTX: 26100000 instructions simulated : ctaid=(88,0,0) tid=(95,0,0)
GPGPU-Sim PTX: 26200000 instructions simulated : ctaid=(48,0,0) tid=(95,0,0)
GPGPU-Sim PTX: 26300000 instructions simulated : ctaid=(1,0,0) tid=(127,0,0)
GPGPU-Sim PTX: 26400000 instructions simulated : ctaid=(18,0,0) tid=(63,0,0)
GPGPU-Sim PTX: 26500000 instructions simulated : ctaid=(26,0,0) tid=(31,0,0)
GPGPU-Sim PTX: 26600000 instructions simulated : ctaid=(89,0,0) tid=(127,0,0)
GPGPU-Sim uArch: cycles simulated: 39000  inst.: 26566368 (ipc=681.2) sim_rate=542170 (inst/sec) elapsed = 0:0:00:49 / Wed May  1 12:43:27 2019
GPGPU-Sim PTX: 26700000 instructions simulated : ctaid=(29,0,0) tid=(31,0,0)
GPGPU-Sim PTX: 26800000 instructions simulated : ctaid=(118,0,0) tid=(31,0,0)
GPGPU-Sim PTX: 26900000 instructions simulated : ctaid=(22,0,0) tid=(63,0,0)
GPGPU-Sim PTX: 27000000 instructions simulated : ctaid=(30,0,0) tid=(63,0,0)
GPGPU-Sim PTX: 27100000 instructions simulated : ctaid=(9,0,0) tid=(63,0,0)
GPGPU-Sim PTX: 27200000 instructions simulated : ctaid=(45,0,0) tid=(127,0,0)
GPGPU-Sim PTX: 27300000 instructions simulated : ctaid=(39,0,0) tid=(31,0,0)
GPGPU-Sim uArch: cycles simulated: 40000  inst.: 27296128 (ipc=682.4) sim_rate=545922 (inst/sec) elapsed = 0:0:00:50 / Wed May  1 12:43:28 2019
GPGPU-Sim PTX: 27400000 instructions simulated : ctaid=(18,0,0) tid=(63,0,0)
GPGPU-Sim PTX: 27500000 instructions simulated : ctaid=(3,0,0) tid=(31,0,0)
GPGPU-Sim PTX: 27600000 instructions simulated : ctaid=(44,0,0) tid=(31,0,0)
GPGPU-Sim PTX: 27700000 instructions simulated : ctaid=(61,0,0) tid=(31,0,0)
GPGPU-Sim PTX: 27800000 instructions simulated : ctaid=(59,0,0) tid=(31,0,0)
GPGPU-Sim PTX: 27900000 instructions simulated : ctaid=(115,0,0) tid=(31,0,0)
GPGPU-Sim PTX: 28000000 instructions simulated : ctaid=(12,0,0) tid=(95,0,0)
GPGPU-Sim uArch: cycles simulated: 41000  inst.: 28017376 (ipc=683.4) sim_rate=549360 (inst/sec) elapsed = 0:0:00:51 / Wed May  1 12:43:29 2019
GPGPU-Sim PTX: 28100000 instructions simulated : ctaid=(20,0,0) tid=(63,0,0)
GPGPU-Sim PTX: 28200000 instructions simulated : ctaid=(69,0,0) tid=(95,0,0)
GPGPU-Sim PTX: 28300000 instructions simulated : ctaid=(10,0,0) tid=(127,0,0)
GPGPU-Sim PTX: 28400000 instructions simulated : ctaid=(3,0,0) tid=(31,0,0)
GPGPU-Sim uArch: cycles simulated: 41500  inst.: 28373152 (ipc=683.7) sim_rate=545637 (inst/sec) elapsed = 0:0:00:52 / Wed May  1 12:43:30 2019
GPGPU-Sim PTX: 28500000 instructions simulated : ctaid=(62,0,0) tid=(63,0,0)
GPGPU-Sim PTX: 28600000 instructions simulated : ctaid=(65,0,0) tid=(127,0,0)
GPGPU-Sim PTX: 28700000 instructions simulated : ctaid=(86,0,0) tid=(95,0,0)
GPGPU-Sim PTX: 28800000 instructions simulated : ctaid=(17,0,0) tid=(63,0,0)
GPGPU-Sim PTX: 28900000 instructions simulated : ctaid=(83,0,0) tid=(63,0,0)
GPGPU-Sim PTX: 29000000 instructions simulated : ctaid=(2,0,0) tid=(95,0,0)
GPGPU-Sim PTX: 29100000 instructions simulated : ctaid=(0,0,0) tid=(31,0,0)
GPGPU-Sim uArch: cycles simulated: 42500  inst.: 29094560 (ipc=684.6) sim_rate=548953 (inst/sec) elapsed = 0:0:00:53 / Wed May  1 12:43:31 2019
GPGPU-Sim PTX: 29200000 instructions simulated : ctaid=(64,0,0) tid=(127,0,0)
GPGPU-Sim PTX: 29300000 instructions simulated : ctaid=(53,0,0) tid=(127,0,0)
GPGPU-Sim PTX: 29400000 instructions simulated : ctaid=(66,0,0) tid=(95,0,0)
GPGPU-Sim PTX: 29500000 instructions simulated : ctaid=(51,0,0) tid=(31,0,0)
GPGPU-Sim PTX: 29600000 instructions simulated : ctaid=(66,0,0) tid=(95,0,0)
GPGPU-Sim PTX: 29700000 instructions simulated : ctaid=(77,0,0) tid=(31,0,0)
GPGPU-Sim PTX: 29800000 instructions simulated : ctaid=(29,0,0) tid=(63,0,0)
GPGPU-Sim uArch: cycles simulated: 43500  inst.: 29823584 (ipc=685.6) sim_rate=552288 (inst/sec) elapsed = 0:0:00:54 / Wed May  1 12:43:32 2019
GPGPU-Sim PTX: 29900000 instructions simulated : ctaid=(48,0,0) tid=(63,0,0)
GPGPU-Sim PTX: 30000000 instructions simulated : ctaid=(27,0,0) tid=(63,0,0)
GPGPU-Sim PTX: 30100000 instructions simulated : ctaid=(89,0,0) tid=(31,0,0)
GPGPU-Sim PTX: 30200000 instructions simulated : ctaid=(89,0,0) tid=(127,0,0)
GPGPU-Sim uArch: cycles simulated: 44000  inst.: 30186752 (ipc=686.1) sim_rate=548850 (inst/sec) elapsed = 0:0:00:55 / Wed May  1 12:43:33 2019
GPGPU-Sim PTX: 30300000 instructions simulated : ctaid=(17,0,0) tid=(63,0,0)
GPGPU-Sim PTX: 30400000 instructions simulated : ctaid=(15,0,0) tid=(95,0,0)
GPGPU-Sim PTX: 30500000 instructions simulated : ctaid=(24,0,0) tid=(127,0,0)
GPGPU-Sim PTX: 30600000 instructions simulated : ctaid=(24,0,0) tid=(31,0,0)
GPGPU-Sim PTX: 30700000 instructions simulated : ctaid=(32,0,0) tid=(63,0,0)
GPGPU-Sim PTX: 30800000 instructions simulated : ctaid=(58,0,0) tid=(127,0,0)
GPGPU-Sim PTX: 30900000 instructions simulated : ctaid=(3,0,0) tid=(95,0,0)
GPGPU-Sim uArch: cycles simulated: 45000  inst.: 30909920 (ipc=686.9) sim_rate=551962 (inst/sec) elapsed = 0:0:00:56 / Wed May  1 12:43:34 2019
GPGPU-Sim PTX: 31000000 instructions simulated : ctaid=(22,0,0) tid=(63,0,0)
GPGPU-Sim PTX: 31100000 instructions simulated : ctaid=(27,0,0) tid=(127,0,0)
GPGPU-Sim PTX: 31200000 instructions simulated : ctaid=(69,0,0) tid=(95,0,0)
GPGPU-Sim PTX: 31300000 instructions simulated : ctaid=(15,0,0) tid=(31,0,0)
GPGPU-Sim PTX: 31400000 instructions simulated : ctaid=(26,0,0) tid=(63,0,0)
GPGPU-Sim PTX: 31500000 instructions simulated : ctaid=(53,0,0) tid=(95,0,0)
GPGPU-Sim PTX: 31600000 instructions simulated : ctaid=(33,0,0) tid=(127,0,0)
GPGPU-Sim uArch: cycles simulated: 46000  inst.: 31652832 (ipc=688.1) sim_rate=555312 (inst/sec) elapsed = 0:0:00:57 / Wed May  1 12:43:35 2019
GPGPU-Sim PTX: 31700000 instructions simulated : ctaid=(65,0,0) tid=(31,0,0)
GPGPU-Sim PTX: 31800000 instructions simulated : ctaid=(34,0,0) tid=(63,0,0)
GPGPU-Sim PTX: 31900000 instructions simulated : ctaid=(77,0,0) tid=(31,0,0)
GPGPU-Sim PTX: 32000000 instructions simulated : ctaid=(41,0,0) tid=(127,0,0)
GPGPU-Sim PTX: 32100000 instructions simulated : ctaid=(38,0,0) tid=(63,0,0)
GPGPU-Sim PTX: 32200000 instructions simulated : ctaid=(67,0,0) tid=(127,0,0)
GPGPU-Sim uArch: Shader 0 finished CTA #0 (46818,0), 7 CTAs running
GPGPU-Sim uArch: core:  0, cta: 0 initialized @(46819,0)
GPGPU-Sim PTX: 32300000 instructions simulated : ctaid=(37,0,0) tid=(95,0,0)
GPGPU-Sim uArch: Shader 6 finished CTA #0 (46869,0), 7 CTAs running
GPGPU-Sim uArch: core:  6, cta: 0 initialized @(46870,0)
GPGPU-Sim PTX: 32400000 instructions simulated : ctaid=(18,0,0) tid=(31,0,0)
GPGPU-Sim uArch: cycles simulated: 47000  inst.: 32386016 (ipc=689.1) sim_rate=558379 (inst/sec) elapsed = 0:0:00:58 / Wed May  1 12:43:36 2019
GPGPU-Sim uArch: Shader 14 finished CTA #0 (47051,0), 7 CTAs running
GPGPU-Sim uArch: core: 14, cta: 0 initialized @(47052,0)
GPGPU-Sim uArch: Shader 8 finished CTA #0 (47063,0), 7 CTAs running
GPGPU-Sim uArch: core:  8, cta: 0 initialized @(47064,0)
GPGPU-Sim PTX: 32500000 instructions simulated : ctaid=(18,0,0) tid=(63,0,0)
GPGPU-Sim uArch: Shader 10 finished CTA #0 (47187,0), 7 CTAs running
GPGPU-Sim uArch: core: 10, cta: 0 initialized @(47188,0)
GPGPU-Sim uArch: Shader 5 finished CTA #0 (47231,0), 7 CTAs running
GPGPU-Sim uArch: core:  5, cta: 0 initialized @(47232,0)
GPGPU-Sim PTX: 32600000 instructions simulated : ctaid=(79,0,0) tid=(95,0,0)
GPGPU-Sim uArch: Shader 2 finished CTA #0 (47279,0), 7 CTAs running
GPGPU-Sim uArch: core:  2, cta: 0 initialized @(47280,0)
GPGPU-Sim uArch: Shader 4 finished CTA #0 (47298,0), 7 CTAs running
GPGPU-Sim uArch: core:  4, cta: 0 initialized @(47299,0)
GPGPU-Sim PTX: 32700000 instructions simulated : ctaid=(22,0,0) tid=(63,0,0)
GPGPU-Sim PTX: 32800000 instructions simulated : ctaid=(100,0,0) tid=(63,0,0)
GPGPU-Sim PTX: 32900000 instructions simulated : ctaid=(47,0,0) tid=(95,0,0)
GPGPU-Sim uArch: Shader 9 finished CTA #0 (47689,0), 7 CTAs running
GPGPU-Sim uArch: core:  9, cta: 0 initialized @(47690,0)
GPGPU-Sim PTX: 33000000 instructions simulated : ctaid=(49,0,0) tid=(31,0,0)
GPGPU-Sim uArch: Shader 11 finished CTA #0 (47781,0), 7 CTAs running
GPGPU-Sim uArch: core: 11, cta: 0 initialized @(47782,0)
GPGPU-Sim uArch: Shader 13 finished CTA #0 (47842,0), 7 CTAs running
GPGPU-Sim uArch: core: 13, cta: 0 initialized @(47843,0)
GPGPU-Sim uArch: Shader 7 finished CTA #0 (47868,0), 7 CTAs running
GPGPU-Sim uArch: core:  7, cta: 0 initialized @(47869,0)
GPGPU-Sim PTX: 33100000 instructions simulated : ctaid=(72,0,0) tid=(127,0,0)
GPGPU-Sim uArch: cycles simulated: 48000  inst.: 33142848 (ipc=690.5) sim_rate=561743 (inst/sec) elapsed = 0:0:00:59 / Wed May  1 12:43:37 2019
GPGPU-Sim PTX: 33200000 instructions simulated : ctaid=(114,0,0) tid=(31,0,0)
GPGPU-Sim PTX: 33300000 instructions simulated : ctaid=(66,0,0) tid=(63,0,0)
GPGPU-Sim PTX: 33400000 instructions simulated : ctaid=(44,0,0) tid=(63,0,0)
GPGPU-Sim uArch: Shader 12 finished CTA #0 (48376,0), 7 CTAs running
GPGPU-Sim uArch: core: 12, cta: 0 initialized @(48377,0)
GPGPU-Sim PTX: 33500000 instructions simulated : ctaid=(114,0,0) tid=(31,0,0)
GPGPU-Sim uArch: Shader 3 finished CTA #0 (48431,0), 7 CTAs running
GPGPU-Sim uArch: core:  3, cta: 0 initialized @(48432,0)
GPGPU-Sim uArch: cycles simulated: 48500  inst.: 33509376 (ipc=690.9) sim_rate=558489 (inst/sec) elapsed = 0:0:01:00 / Wed May  1 12:43:38 2019
GPGPU-Sim uArch: Shader 1 finished CTA #0 (48527,0), 7 CTAs running
GPGPU-Sim uArch: core:  1, cta: 0 initialized @(48528,0)
GPGPU-Sim PTX: 33600000 instructions simulated : ctaid=(82,0,0) tid=(95,0,0)
GPGPU-Sim PTX: 33700000 instructions simulated : ctaid=(100,0,0) tid=(31,0,0)
GPGPU-Sim PTX: 33800000 instructions simulated : ctaid=(122,0,0) tid=(31,0,0)
GPGPU-Sim PTX: 33900000 instructions simulated : ctaid=(55,0,0) tid=(63,0,0)
GPGPU-Sim uArch: Shader 4 finished CTA #1 (49009,0), 7 CTAs running
GPGPU-Sim uArch: core:  4, cta: 1 initialized @(49010,0)
GPGPU-Sim PTX: 34000000 instructions simulated : ctaid=(88,0,0) tid=(127,0,0)
GPGPU-Sim PTX: 34100000 instructions simulated : ctaid=(55,0,0) tid=(63,0,0)
GPGPU-Sim PTX: 34200000 instructions simulated : ctaid=(88,0,0) tid=(63,0,0)
GPGPU-Sim uArch: Shader 14 finished CTA #1 (49456,0), 7 CTAs running
GPGPU-Sim uArch: core: 14, cta: 1 initialized @(49457,0)
GPGPU-Sim uArch: Shader 2 finished CTA #1 (49492,0), 7 CTAs running
GPGPU-Sim uArch: core:  2, cta: 1 initialized @(49493,0)
GPGPU-Sim uArch: cycles simulated: 49500  inst.: 34234048 (ipc=691.6) sim_rate=561213 (inst/sec) elapsed = 0:0:01:01 / Wed May  1 12:43:39 2019
GPGPU-Sim uArch: Shader 13 finished CTA #1 (49517,0), 7 CTAs running
GPGPU-Sim uArch: core: 13, cta: 1 initialized @(49518,0)
GPGPU-Sim PTX: 34300000 instructions simulated : ctaid=(59,0,0) tid=(95,0,0)
GPGPU-Sim uArch: Shader 10 finished CTA #1 (49643,0), 7 CTAs running
GPGPU-Sim uArch: core: 10, cta: 1 initialized @(49644,0)
GPGPU-Sim PTX: 34400000 instructions simulated : ctaid=(126,0,0) tid=(95,0,0)
GPGPU-Sim uArch: Shader 9 finished CTA #1 (49704,0), 7 CTAs running
GPGPU-Sim uArch: core:  9, cta: 1 initialized @(49705,0)
GPGPU-Sim uArch: Shader 0 finished CTA #1 (49744,0), 7 CTAs running
GPGPU-Sim uArch: core:  0, cta: 1 initialized @(49745,0)
GPGPU-Sim PTX: 34500000 instructions simulated : ctaid=(86,0,0) tid=(95,0,0)
GPGPU-Sim PTX: 34600000 instructions simulated : ctaid=(58,0,0) tid=(63,0,0)
GPGPU-Sim PTX: 34700000 instructions simulated : ctaid=(84,0,0) tid=(127,0,0)
GPGPU-Sim uArch: Shader 6 finished CTA #1 (50097,0), 7 CTAs running
GPGPU-Sim uArch: core:  6, cta: 1 initialized @(50098,0)
GPGPU-Sim PTX: 34800000 instructions simulated : ctaid=(102,0,0) tid=(31,0,0)
GPGPU-Sim PTX: 34900000 instructions simulated : ctaid=(65,0,0) tid=(63,0,0)
GPGPU-Sim uArch: Shader 12 finished CTA #1 (50407,0), 7 CTAs running
GPGPU-Sim uArch: core: 12, cta: 1 initialized @(50408,0)
GPGPU-Sim PTX: 35000000 instructions simulated : ctaid=(128,0,0) tid=(95,0,0)
GPGPU-Sim uArch: cycles simulated: 50500  inst.: 34969824 (ipc=692.5) sim_rate=564029 (inst/sec) elapsed = 0:0:01:02 / Wed May  1 12:43:40 2019
GPGPU-Sim uArch: Shader 5 finished CTA #1 (50565,0), 7 CTAs running
GPGPU-Sim uArch: core:  5, cta: 1 initialized @(50566,0)
GPGPU-Sim uArch: Shader 11 finished CTA #1 (50581,0), 7 CTAs running
GPGPU-Sim uArch: core: 11, cta: 1 initialized @(50582,0)
GPGPU-Sim PTX: 35100000 instructions simulated : ctaid=(48,0,0) tid=(95,0,0)
GPGPU-Sim uArch: Shader 8 finished CTA #1 (50671,0), 7 CTAs running
GPGPU-Sim uArch: core:  8, cta: 1 initialized @(50672,0)
GPGPU-Sim uArch: Shader 3 finished CTA #1 (50703,0), 7 CTAs running
GPGPU-Sim uArch: core:  3, cta: 1 initialized @(50704,0)
GPGPU-Sim uArch: Shader 1 finished CTA #1 (50731,0), 7 CTAs running
GPGPU-Sim uArch: core:  1, cta: 1 initialized @(50732,0)
GPGPU-Sim PTX: 35200000 instructions simulated : ctaid=(143,0,0) tid=(31,0,0)
GPGPU-Sim PTX: 35300000 instructions simulated : ctaid=(125,0,0) tid=(95,0,0)
GPGPU-Sim uArch: cycles simulated: 51000  inst.: 35341664 (ipc=693.0) sim_rate=560978 (inst/sec) elapsed = 0:0:01:03 / Wed May  1 12:43:41 2019
GPGPU-Sim PTX: 35400000 instructions simulated : ctaid=(61,0,0) tid=(31,0,0)
GPGPU-Sim uArch: Shader 7 finished CTA #1 (51111,0), 7 CTAs running
GPGPU-Sim uArch: core:  7, cta: 1 initialized @(51112,0)
GPGPU-Sim PTX: 35500000 instructions simulated : ctaid=(65,0,0) tid=(31,0,0)
GPGPU-Sim PTX: 35600000 instructions simulated : ctaid=(143,0,0) tid=(31,0,0)
GPGPU-Sim PTX: 35700000 instructions simulated : ctaid=(109,0,0) tid=(63,0,0)
GPGPU-Sim PTX: 35800000 instructions simulated : ctaid=(143,0,0) tid=(95,0,0)
GPGPU-Sim PTX: 35900000 instructions simulated : ctaid=(85,0,0) tid=(95,0,0)
GPGPU-Sim PTX: 36000000 instructions simulated : ctaid=(119,0,0) tid=(63,0,0)
GPGPU-Sim PTX: 36100000 instructions simulated : ctaid=(115,0,0) tid=(95,0,0)
GPGPU-Sim uArch: cycles simulated: 52000  inst.: 36071488 (ipc=693.7) sim_rate=563617 (inst/sec) elapsed = 0:0:01:04 / Wed May  1 12:43:42 2019
GPGPU-Sim PTX: 36200000 instructions simulated : ctaid=(95,0,0) tid=(95,0,0)
GPGPU-Sim PTX: 36300000 instructions simulated : ctaid=(62,0,0) tid=(63,0,0)
GPGPU-Sim PTX: 36400000 instructions simulated : ctaid=(126,0,0) tid=(31,0,0)
GPGPU-Sim uArch: Shader 10 finished CTA #2 (52421,0), 7 CTAs running
GPGPU-Sim uArch: core: 10, cta: 2 initialized @(52422,0)
GPGPU-Sim uArch: Shader 12 finished CTA #2 (52445,0), 7 CTAs running
GPGPU-Sim uArch: core: 12, cta: 2 initialized @(52446,0)
GPGPU-Sim uArch: Shader 4 finished CTA #2 (52488,0), 7 CTAs running
GPGPU-Sim uArch: core:  4, cta: 2 initialized @(52489,0)
GPGPU-Sim uArch: Shader 5 finished CTA #2 (52489,0), 7 CTAs running
GPGPU-Sim uArch: core:  5, cta: 2 initialized @(52490,0)
GPGPU-Sim uArch: Shader 13 finished CTA #2 (52493,0), 7 CTAs running
GPGPU-Sim uArch: core: 13, cta: 2 initialized @(52494,0)
GPGPU-Sim PTX: 36500000 instructions simulated : ctaid=(99,0,0) tid=(31,0,0)
GPGPU-Sim PTX: 36600000 instructions simulated : ctaid=(87,0,0) tid=(95,0,0)
GPGPU-Sim uArch: Shader 0 finished CTA #2 (52732,0), 7 CTAs running
GPGPU-Sim uArch: core:  0, cta: 2 initialized @(52733,0)
GPGPU-Sim PTX: 36700000 instructions simulated : ctaid=(148,0,0) tid=(95,0,0)
GPGPU-Sim uArch: Shader 2 finished CTA #2 (52820,0), 7 CTAs running
GPGPU-Sim uArch: core:  2, cta: 2 initialized @(52821,0)
GPGPU-Sim PTX: 36800000 instructions simulated : ctaid=(45,0,0) tid=(63,0,0)
GPGPU-Sim uArch: Shader 14 finished CTA #2 (52953,0), 7 CTAs running
GPGPU-Sim uArch: core: 14, cta: 2 initialized @(52954,0)
GPGPU-Sim uArch: cycles simulated: 53000  inst.: 36794144 (ipc=694.2) sim_rate=566063 (inst/sec) elapsed = 0:0:01:05 / Wed May  1 12:43:43 2019
GPGPU-Sim PTX: 36900000 instructions simulated : ctaid=(59,0,0) tid=(63,0,0)
GPGPU-Sim PTX: 37000000 instructions simulated : ctaid=(47,0,0) tid=(127,0,0)
GPGPU-Sim uArch: Shader 11 finished CTA #2 (53354,0), 7 CTAs running
GPGPU-Sim uArch: core: 11, cta: 2 initialized @(53355,0)
GPGPU-Sim PTX: 37100000 instructions simulated : ctaid=(60,0,0) tid=(127,0,0)
GPGPU-Sim uArch: Shader 9 finished CTA #2 (53378,0), 7 CTAs running
GPGPU-Sim uArch: core:  9, cta: 2 initialized @(53379,0)
GPGPU-Sim uArch: Shader 7 finished CTA #2 (53400,0), 7 CTAs running
GPGPU-Sim uArch: core:  7, cta: 2 initialized @(53401,0)
GPGPU-Sim PTX: 37200000 instructions simulated : ctaid=(96,0,0) tid=(127,0,0)
GPGPU-Sim uArch: cycles simulated: 53500  inst.: 37162176 (ipc=694.6) sim_rate=563063 (inst/sec) elapsed = 0:0:01:06 / Wed May  1 12:43:44 2019
GPGPU-Sim PTX: 37300000 instructions simulated : ctaid=(91,0,0) tid=(31,0,0)
GPGPU-Sim uArch: Shader 6 finished CTA #2 (53746,0), 7 CTAs running
GPGPU-Sim uArch: core:  6, cta: 2 initialized @(53747,0)
GPGPU-Sim PTX: 37400000 instructions simulated : ctaid=(116,0,0) tid=(95,0,0)
GPGPU-Sim uArch: Shader 3 finished CTA #2 (53879,0), 7 CTAs running
GPGPU-Sim uArch: core:  3, cta: 2 initialized @(53880,0)
GPGPU-Sim PTX: 37500000 instructions simulated : ctaid=(83,0,0) tid=(127,0,0)
GPGPU-Sim PTX: 37600000 instructions simulated : ctaid=(83,0,0) tid=(63,0,0)
GPGPU-Sim uArch: Shader 8 finished CTA #2 (54081,0), 7 CTAs running
GPGPU-Sim uArch: core:  8, cta: 2 initialized @(54082,0)
GPGPU-Sim PTX: 37700000 instructions simulated : ctaid=(93,0,0) tid=(95,0,0)
GPGPU-Sim PTX: 37800000 instructions simulated : ctaid=(90,0,0) tid=(127,0,0)
GPGPU-Sim PTX: 37900000 instructions simulated : ctaid=(47,0,0) tid=(127,0,0)
GPGPU-Sim uArch: Shader 1 finished CTA #2 (54445,0), 7 CTAs running
GPGPU-Sim uArch: core:  1, cta: 2 initialized @(54446,0)
GPGPU-Sim uArch: cycles simulated: 54500  inst.: 37902080 (ipc=695.5) sim_rate=565702 (inst/sec) elapsed = 0:0:01:07 / Wed May  1 12:43:45 2019
GPGPU-Sim PTX: 38000000 instructions simulated : ctaid=(88,0,0) tid=(31,0,0)
GPGPU-Sim PTX: 38100000 instructions simulated : ctaid=(123,0,0) tid=(31,0,0)
GPGPU-Sim PTX: 38200000 instructions simulated : ctaid=(70,0,0) tid=(95,0,0)
GPGPU-Sim PTX: 38300000 instructions simulated : ctaid=(63,0,0) tid=(63,0,0)
GPGPU-Sim PTX: 38400000 instructions simulated : ctaid=(69,0,0) tid=(95,0,0)
GPGPU-Sim PTX: 38500000 instructions simulated : ctaid=(90,0,0) tid=(95,0,0)
GPGPU-Sim PTX: 38600000 instructions simulated : ctaid=(97,0,0) tid=(127,0,0)
GPGPU-Sim uArch: cycles simulated: 55500  inst.: 38623680 (ipc=695.9) sim_rate=567995 (inst/sec) elapsed = 0:0:01:08 / Wed May  1 12:43:46 2019
GPGPU-Sim PTX: 38700000 instructions simulated : ctaid=(138,0,0) tid=(31,0,0)
GPGPU-Sim PTX: 38800000 instructions simulated : ctaid=(124,0,0) tid=(95,0,0)
GPGPU-Sim PTX: 38900000 instructions simulated : ctaid=(76,0,0) tid=(127,0,0)
GPGPU-Sim PTX: 39000000 instructions simulated : ctaid=(89,0,0) tid=(63,0,0)
GPGPU-Sim PTX: 39100000 instructions simulated : ctaid=(125,0,0) tid=(95,0,0)
GPGPU-Sim PTX: 39200000 instructions simulated : ctaid=(77,0,0) tid=(31,0,0)
GPGPU-Sim PTX: 39300000 instructions simulated : ctaid=(98,0,0) tid=(63,0,0)
GPGPU-Sim uArch: cycles simulated: 56500  inst.: 39337024 (ipc=696.2) sim_rate=570101 (inst/sec) elapsed = 0:0:01:09 / Wed May  1 12:43:47 2019
GPGPU-Sim PTX: 39400000 instructions simulated : ctaid=(130,0,0) tid=(127,0,0)
GPGPU-Sim PTX: 39500000 instructions simulated : ctaid=(110,0,0) tid=(63,0,0)
GPGPU-Sim PTX: 39600000 instructions simulated : ctaid=(63,0,0) tid=(63,0,0)
GPGPU-Sim PTX: 39700000 instructions simulated : ctaid=(93,0,0) tid=(95,0,0)
GPGPU-Sim uArch: cycles simulated: 57000  inst.: 39707008 (ipc=696.6) sim_rate=567242 (inst/sec) elapsed = 0:0:01:10 / Wed May  1 12:43:48 2019
GPGPU-Sim PTX: 39800000 instructions simulated : ctaid=(142,0,0) tid=(31,0,0)
GPGPU-Sim PTX: 39900000 instructions simulated : ctaid=(121,0,0) tid=(95,0,0)
GPGPU-Sim PTX: 40000000 instructions simulated : ctaid=(83,0,0) tid=(31,0,0)
GPGPU-Sim PTX: 40100000 instructions simulated : ctaid=(83,0,0) tid=(127,0,0)
GPGPU-Sim uArch: Shader 7 finished CTA #3 (57530,0), 7 CTAs running
GPGPU-Sim uArch: core:  7, cta: 3 initialized @(57531,0)
GPGPU-Sim PTX: 40200000 instructions simulated : ctaid=(112,0,0) tid=(63,0,0)
GPGPU-Sim PTX: 40300000 instructions simulated : ctaid=(138,0,0) tid=(95,0,0)
GPGPU-Sim PTX: 40400000 instructions simulated : ctaid=(66,0,0) tid=(63,0,0)
GPGPU-Sim uArch: cycles simulated: 58000  inst.: 40429248 (ipc=697.1) sim_rate=569426 (inst/sec) elapsed = 0:0:01:11 / Wed May  1 12:43:49 2019
GPGPU-Sim PTX: 40500000 instructions simulated : ctaid=(60,0,0) tid=(63,0,0)
GPGPU-Sim PTX: 40600000 instructions simulated : ctaid=(125,0,0) tid=(63,0,0)
GPGPU-Sim PTX: 40700000 instructions simulated : ctaid=(145,0,0) tid=(95,0,0)
GPGPU-Sim PTX: 40800000 instructions simulated : ctaid=(94,0,0) tid=(63,0,0)
GPGPU-Sim PTX: 40900000 instructions simulated : ctaid=(86,0,0) tid=(63,0,0)
GPGPU-Sim PTX: 41000000 instructions simulated : ctaid=(103,0,0) tid=(31,0,0)
GPGPU-Sim uArch: Shader 6 finished CTA #3 (58753,0), 7 CTAs running
GPGPU-Sim uArch: core:  6, cta: 3 initialized @(58754,0)
GPGPU-Sim PTX: 41100000 instructions simulated : ctaid=(129,0,0) tid=(31,0,0)
GPGPU-Sim PTX: 41200000 instructions simulated : ctaid=(60,0,0) tid=(63,0,0)
GPGPU-Sim uArch: cycles simulated: 59000  inst.: 41156160 (ipc=697.6) sim_rate=571613 (inst/sec) elapsed = 0:0:01:12 / Wed May  1 12:43:50 2019
GPGPU-Sim PTX: 41300000 instructions simulated : ctaid=(68,0,0) tid=(63,0,0)
GPGPU-Sim PTX: 41400000 instructions simulated : ctaid=(82,0,0) tid=(63,0,0)
GPGPU-Sim PTX: 41500000 instructions simulated : ctaid=(126,0,0) tid=(63,0,0)
GPGPU-Sim uArch: cycles simulated: 59500  inst.: 41518240 (ipc=697.8) sim_rate=568743 (inst/sec) elapsed = 0:0:01:13 / Wed May  1 12:43:51 2019
GPGPU-Sim PTX: 41600000 instructions simulated : ctaid=(90,0,0) tid=(31,0,0)
GPGPU-Sim uArch: Shader 2 finished CTA #3 (59630,0), 7 CTAs running
GPGPU-Sim uArch: core:  2, cta: 3 initialized @(59631,0)
GPGPU-Sim uArch: Shader 1 finished CTA #3 (59674,0), 7 CTAs running
GPGPU-Sim uArch: core:  1, cta: 3 initialized @(59675,0)
GPGPU-Sim PTX: 41700000 instructions simulated : ctaid=(63,0,0) tid=(63,0,0)
GPGPU-Sim uArch: Shader 11 finished CTA #3 (59714,0), 7 CTAs running
GPGPU-Sim uArch: core: 11, cta: 3 initialized @(59715,0)
GPGPU-Sim uArch: Shader 4 finished CTA #3 (59718,0), 7 CTAs running
GPGPU-Sim uArch: core:  4, cta: 3 initialized @(59719,0)
GPGPU-Sim PTX: 41800000 instructions simulated : ctaid=(61,0,0) tid=(127,0,0)
GPGPU-Sim uArch: Shader 10 finished CTA #3 (59927,0), 7 CTAs running
GPGPU-Sim uArch: core: 10, cta: 3 initialized @(59928,0)
GPGPU-Sim PTX: 41900000 instructions simulated : ctaid=(77,0,0) tid=(31,0,0)
GPGPU-Sim PTX: 42000000 instructions simulated : ctaid=(154,0,0) tid=(31,0,0)
GPGPU-Sim uArch: Shader 9 finished CTA #3 (60179,0), 7 CTAs running
GPGPU-Sim uArch: core:  9, cta: 3 initialized @(60180,0)
GPGPU-Sim PTX: 42100000 instructions simulated : ctaid=(57,0,0) tid=(127,0,0)
GPGPU-Sim PTX: 42200000 instructions simulated : ctaid=(95,0,0) tid=(31,0,0)
GPGPU-Sim PTX: 42300000 instructions simulated : ctaid=(101,0,0) tid=(31,0,0)
GPGPU-Sim uArch: cycles simulated: 60500  inst.: 42252448 (ipc=698.4) sim_rate=570979 (inst/sec) elapsed = 0:0:01:14 / Wed May  1 12:43:52 2019
GPGPU-Sim uArch: Shader 5 finished CTA #3 (60521,0), 7 CTAs running
GPGPU-Sim uArch: core:  5, cta: 3 initialized @(60522,0)
GPGPU-Sim PTX: 42400000 instructions simulated : ctaid=(68,0,0) tid=(63,0,0)
GPGPU-Sim uArch: Shader 3 finished CTA #3 (60707,0), 7 CTAs running
GPGPU-Sim uArch: core:  3, cta: 3 initialized @(60708,0)
GPGPU-Sim uArch: Shader 14 finished CTA #3 (60719,0), 7 CTAs running
GPGPU-Sim uArch: core: 14, cta: 3 initialized @(60720,0)
GPGPU-Sim PTX: 42500000 instructions simulated : ctaid=(61,0,0) tid=(63,0,0)
GPGPU-Sim uArch: Shader 13 finished CTA #3 (60804,0), 7 CTAs running
GPGPU-Sim uArch: core: 13, cta: 3 initialized @(60805,0)
GPGPU-Sim uArch: Shader 12 finished CTA #3 (60889,0), 7 CTAs running
GPGPU-Sim uArch: core: 12, cta: 3 initialized @(60890,0)
GPGPU-Sim uArch: Shader 8 finished CTA #3 (60896,0), 7 CTAs running
GPGPU-Sim uArch: core:  8, cta: 3 initialized @(60897,0)
GPGPU-Sim PTX: 42600000 instructions simulated : ctaid=(91,0,0) tid=(95,0,0)
GPGPU-Sim PTX: 42700000 instructions simulated : ctaid=(141,0,0) tid=(63,0,0)
GPGPU-Sim PTX: 42800000 instructions simulated : ctaid=(93,0,0) tid=(95,0,0)
GPGPU-Sim PTX: 42900000 instructions simulated : ctaid=(62,0,0) tid=(63,0,0)
GPGPU-Sim PTX: 43000000 instructions simulated : ctaid=(163,0,0) tid=(31,0,0)
GPGPU-Sim uArch: cycles simulated: 61500  inst.: 42993088 (ipc=699.1) sim_rate=573241 (inst/sec) elapsed = 0:0:01:15 / Wed May  1 12:43:53 2019
GPGPU-Sim PTX: 43100000 instructions simulated : ctaid=(157,0,0) tid=(95,0,0)
GPGPU-Sim PTX: 43200000 instructions simulated : ctaid=(129,0,0) tid=(95,0,0)
GPGPU-Sim PTX: 43300000 instructions simulated : ctaid=(161,0,0) tid=(31,0,0)
GPGPU-Sim uArch: Shader 0 finished CTA #3 (61979,0), 7 CTAs running
GPGPU-Sim uArch: core:  0, cta: 3 initialized @(61980,0)
GPGPU-Sim PTX: 43400000 instructions simulated : ctaid=(149,0,0) tid=(127,0,0)
GPGPU-Sim uArch: cycles simulated: 62000  inst.: 43357920 (ipc=699.3) sim_rate=570498 (inst/sec) elapsed = 0:0:01:16 / Wed May  1 12:43:54 2019
GPGPU-Sim PTX: 43500000 instructions simulated : ctaid=(172,0,0) tid=(31,0,0)
GPGPU-Sim PTX: 43600000 instructions simulated : ctaid=(175,0,0) tid=(95,0,0)
GPGPU-Sim PTX: 43700000 instructions simulated : ctaid=(79,0,0) tid=(95,0,0)
GPGPU-Sim PTX: 43800000 instructions simulated : ctaid=(119,0,0) tid=(127,0,0)
GPGPU-Sim PTX: 43900000 instructions simulated : ctaid=(120,0,0) tid=(63,0,0)
GPGPU-Sim PTX: 44000000 instructions simulated : ctaid=(173,0,0) tid=(31,0,0)
GPGPU-Sim PTX: 44100000 instructions simulated : ctaid=(129,0,0) tid=(31,0,0)
[...]
averagemflatency = 324 
max_icnt2mem_latency = 510 
max_icnt2sh_latency = 284384 
mrq_lat_table:159102 	8876 	8871 	23074 	72802 	86493 	60906 	16719 	665 	1 	0 	0 	0 	0 	0 	0 	0 	0 	0 	0 	0 	0 	0 	0 	0 	0 	0 	0 	0 	0 	0 	0 	
dq_lat_table:0 	0 	0 	0 	0 	0 	0 	0 	0 	0 	0 	0 	0 	0 	0 	0 	0 	0 	0 	0 	0 	0 	0 	0 	0 	0 	0 	0 	0 	0 	0 	0 	
mf_lat_table:0 	0 	0 	0 	0 	0 	0 	828 	308706 	2980 	1 	0 	0 	0 	0 	0 	0 	0 	0 	0 	0 	0 	0 	0 	0 	0 	0 	0 	0 	0 	0 	0 	
icnt2mem_lat_table:0 	0 	0 	229443 	77114 	4146 	1342 	464 	126 	0 	0 	0 	0 	0 	0 	0 	0 	0 	0 	0 	0 	0 	0 	0 	
icnt2sh_lat_table:0 	0 	0 	102082 	78080 	7333 	20 	0 	0 	0 	0 	200 	1932 	3784 	7653 	15270 	30405 	60723 	5033 	0 	0 	0 	0 	0 	
mf_lat_pw_table:0 	0 	0 	0 	0 	0 	0 	0 	565 	1 	0 	0 	0 	0 	0 	0 	0 	0 	0 	0 	0 	0 	0 	0 	0 	0 	0 	0 	0 	0 	0 	0 	
maximum concurrent accesses to same row:
dram[0]:        32        32        16        16        22        20        38        34        18        20        32        27        32        30        26        14 
dram[1]:        30        32        14        14        22        20        38        32        14        18        28        26        32        30        14        12 
dram[2]:        32        32        22        16        24        24        38        40        20        16        30        30        32        30        22        18 
dram[3]:        32        32        14        16        20        24        36        32        14        16        28        24        32        30        14        26 
dram[4]:        32        32        14        18        20        28        36        32        14        18        28        32        30        30        14        14 
dram[5]:        29        32        14        14        20        24        32        32        12        10        24        30        30        30        10        16 
maximum service time to same row:
dram[0]:      3163      3097      3769      3531      3801      3773      2449      2425      5247      4305      2306      2391      2757      2682      5541      4521 
dram[1]:      2265      2966      3428      3673      3807      3715      2456      2725      4841      3732      2350      2652      3268      2771      5354      4460 
dram[2]:      2533      3171      3720      3678      3811      3694      2547      2777      4372      3855      2518      2851      2876      2788      4323      4354 
dram[3]:      2642      3056      3289      4006      3668      2392      2728      2484      3912      3995      2606      2479      2857      2810      4335      4325 
dram[4]:      2813      2927      3610      3832      2807      3622      2400      2946      4047      4019      2354      2927      2772      2959      4376      4316 
dram[5]:      2802      2847      3328      3545      3279      2397      2422      2425      4075      3789      2405      2354      2691      2808      4297      4434 
average row accesses per activate:
dram[0]:  1.603747  1.587947  1.592658  1.580939  1.603680  1.610519  1.631954  1.619823  1.596094  1.588889  1.606178  1.611268  1.602802  1.603364  1.621545  1.597208 
dram[1]:  1.577191  1.566540  1.554790  1.543092  1.573065  1.553119  1.591099  1.596650  1.561242  1.555405  1.580111  1.581749  1.578475  1.571429  1.558052  1.573049 
dram[2]:  1.591579  1.613960  1.590412  1.582048  1.601413  1.591021  1.617533  1.634286  1.585036  1.589993  1.594425  1.610700  1.610134  1.613540  1.587786  1.589441 
dram[3]:  1.565217  1.585170  1.558011  1.562868  1.564377  1.578837  1.580656  1.610134  1.559114  1.557522  1.587236  1.583391  1.571429  1.575215  1.563910  1.558583 
dram[4]:  1.600424  1.609375  1.584270  1.578726  1.606523  1.600000  1.614679  1.618677  1.582843  1.588337  1.601120  1.614109  1.603364  1.602241  1.592206  1.591099 
dram[5]:  1.574852  1.581298  1.557473  1.558549  1.554184  1.565217  1.589441  1.602241  1.551186  1.559114  1.571968  1.587236  1.581203  1.577387  1.558583  1.568197 
average row locality = 437509/275881 = 1.585861
number of total memory accesses made:
dram[0]:         0         0         0         0         0         0         0         0         0         0         0         0         0         0         0         0 
dram[1]:         0         0         0         0         0         0         0         0         0         0         0         0         0         0         0         0 
dram[2]:         0         0         0         0         0         0         0         0         0         0         0         0         0         0         0         0 
dram[3]:         0         0         0         0         0         0         0         0         0         0         0         0         0         0         0         0 
dram[4]:         0         0         0         0         0         0         0         0         0         0         0         0         0         0         0         0 
dram[5]:         0         0         0         0         0         0         0         0         0         0         0         0         0         0         0         0 
total accesses: 0
min_bank_accesses = 0!
min_chip_accesses = 0!
number of total read accesses:
dram[0]:      3251      3246      3232      3232      3242      3242      3264      3264      3264      3264      3264      3264      3264      3264      3264      3264 
dram[1]:      3250      3246      3232      3232      3242      3242      3264      3264      3264      3264      3264      3264      3264      3264      3264      3264 
dram[2]:      3250      3246      3232      3232      3242      3244      3264      3264      3264      3264      3264      3264      3264      3264      3264      3264 
dram[3]:      3250      3246      3232      3232      3242      3244      3264      3264      3264      3264      3264      3264      3264      3264      3264      3264 
dram[4]:      3248      3246      3232      3232      3242      3244      3264      3264      3264      3264      3264      3264      3264      3264      3264      3264 
dram[5]:      3248      3246      3232      3232      3242      3244      3264      3264      3264      3264      3264      3264      3264      3264      3264      3264 
total reads: 312509
bank skew: 3264/3232 = 1.01
chip skew: 52086/52084 = 1.00
number of total write accesses:
dram[0]:      1286      1286      1280      1280      1290      1290      1312      1312      1312      1312      1312      1312      1312      1312      1312      1312 
dram[1]:      1286      1286      1280      1280      1290      1290      1312      1312      1312      1312      1312      1312      1312      1312      1312      1312 
dram[2]:      1286      1286      1280      1280      1290      1292      1312      1312      1312      1312      1312      1312      1312      1312      1312      1312 
dram[3]:      1286      1286      1280      1280      1290      1292      1312      1312      1312      1312      1312      1312      1312      1312      1312      1312 
dram[4]:      1286      1286      1280      1280      1290      1292      1312      1312      1312      1312      1312      1312      1312      1312      1312      1312 
dram[5]:      1286      1286      1280      1280      1290      1292      1312      1312      1312      1312      1312      1312      1312      1312      1312      1312 
total reads: 125000
bank skew: 1312/1280 = 1.02
chip skew: 20834/20832 = 1.00
average mf latency per bank:
dram[0]:        232       230       232       233       232       234       235       236       230       229       231       232       232       233       236       233
dram[1]:        231       230       230       233       232       231       234       233       227       229       230       230       231       233       232       233
dram[2]:        232       234       229       231       233       234       233       237       229       230       231       233       231       236       233       235
dram[3]:        228       229       227       229       231       231       230       231       228       227       230       229       231       230       232       231
dram[4]:        231       231       232       232       232       235       234       237       228       230       230       232       233       235       232       232
dram[5]:        231       229       230       229       230       230       232       233       226       227       229       231       231       231       231       232
maximum mf latency per bank:
dram[0]:        844       782       822       686       810       808       792       823       610       645       832       845       895       868       728       774
dram[1]:        718       669       694       657       861       770       713       725       623       589       765       721       821       748       634       645
dram[2]:        776      1013       675       586       938       947       873       905       646       616       966       991      1033       999       798       750
dram[3]:        660       720       603       604       672       638       627       742       629       578       838       771       848       757       632       659
dram[4]:        824       905       592       589       812       915       836       815       655       581       854       885       957       944       767       636
dram[5]:        762       633       642       544       661       894       659       581       554       562       684       757       946       741       878       717

Number of Memory Banks Accessed per Memory Operation per Warp (from 0):
0	0	0	0	0	0	0	0	0	0	0	0	0	0	0	0	0	0	0	0	0	0	0	0	0	0	0	0	0	0	0	0	0	0	0	0	0	0	0	0	0	0	0	0	0	0	0	0	0	0	0	0	0	0	0	0	0	0	0	0	0	0	0	0	0	0	0	0	0	0	0	0	0	0	0	0	0	0	0	0	0	0	0	0	0	0	0	0	0	0	0	0	0	0	0	0	
Average # of Memory Banks Accessed per Memory Operation per Warp=-nan

position of mrq chosen
0	0	0	0	0	0	0	0	0	0	0	0	0	0	0	0	

average position of mrq chosen = -nan
Memory Partition 0: 
Cache L2_bank_000:
MSHR contents

Cache L2_bank_001:
MSHR contents

In Dram Latency Queue (total = 0): 
DRAM[0]: 16 bks, busW=8 BL=8 CL=12, tRRD=2 tCCD=6, tRCD=12 tRAS=28 tRP=12 tRC=40
n_cmd=375387 n_nop=211544 n_act=45471 n_pre=45455 n_req=72917 n_rd=52085 n_write=20832 bw_util=0.3885
n_activity=364580 dram_eff=0.4
bk0: 3251a 217483i bk1: 3246a 216604i bk2: 3232a 212645i bk3: 3232a 211136i bk4: 3242a 211069i bk5: 3242a 209693i bk6: 3264a 206765i bk7: 3264a 204383i bk8: 3264a 215117i bk9: 3264a 213033i bk10: 3264a 212502i bk11: 3264a 211607i bk12: 3264a 208738i bk13: 3264a 207494i bk14: 3264a 205144i bk15: 3264a 205061i 
dram_util_bins: 0 0 0 0 0 0 0 0 0 0
dram_eff_bins: 0 0 0 0 0 0 0 0 0 0
mrqq: max=16 avg=8.52606
Memory Partition 1: 
Cache L2_bank_002:
MSHR contents

Cache L2_bank_003:
MSHR contents
MSHR: tag=0x80f20f80, atomic=0 1 entries : 0x7fe2ccd44c20 :  mf: uid=3593719, sid03:w31, part=1, addr=0x80f20f80, load , size=128, unknown  status = IN_PARTITION_DRAM (284379), 

In Dram Latency Queue (total = 0): 
DRAM[1]: 16 bks, busW=8 BL=8 CL=12, tRRD=2 tCCD=6, tRCD=12 tRAS=28 tRP=12 tRC=40
n_cmd=375387 n_nop=209577 n_act=46455 n_pre=46439 n_req=72916 n_rd=52084 n_write=20832 bw_util=0.3885
n_activity=367155 dram_eff=0.3972
bk0: 3250a 213454i bk1: 3246a 211131i bk2: 3232a 208735i bk3: 3232a 206915i bk4: 3242a 205249i bk5: 3242a 205528i bk6: 3264a 202434i bk7: 3264a 202938i bk8: 3264a 209890i bk9: 3264a 209895i bk10: 3264a 209352i bk11: 3264a 208851i bk12: 3264a 206065i bk13: 3264a 203073i bk14: 3264a 200760i bk15: 3264a 202116i 
dram_util_bins: 0 0 0 0 0 0 0 0 0 0
dram_eff_bins: 0 0 0 0 0 0 0 0 0 0
mrqq: max=16 avg=8.14639
Memory Partition 2: 
Cache L2_bank_004:
MSHR contents

Cache L2_bank_005:
MSHR contents

In Dram Latency Queue (total = 0): 
DRAM[2]: 16 bks, busW=8 BL=8 CL=12, tRRD=2 tCCD=6, tRCD=12 tRAS=28 tRP=12 tRC=40
n_cmd=375387 n_nop=211339 n_act=45572 n_pre=45556 n_req=72920 n_rd=52086 n_write=20834 bw_util=0.3885
n_activity=364707 dram_eff=0.3999
bk0: 3250a 216664i bk1: 3246a 217419i bk2: 3232a 214977i bk3: 3232a 211581i bk4: 3242a 211889i bk5: 3244a 209230i bk6: 3264a 207958i bk7: 3264a 206778i bk8: 3264a 214721i bk9: 3264a 209984i bk10: 3264a 212021i bk11: 3264a 213592i bk12: 3264a 211595i bk13: 3264a 206249i bk14: 3264a 205182i bk15: 3264a 202579i 
dram_util_bins: 0 0 0 0 0 0 0 0 0 0
dram_eff_bins: 0 0 0 0 0 0 0 0 0 0
mrqq: max=16 avg=8.48264
Memory Partition 3: 
Cache L2_bank_006:
MSHR contents

Cache L2_bank_007:
MSHR contents

In Dram Latency Queue (total = 0): 
DRAM[3]: 16 bks, busW=8 BL=8 CL=12, tRRD=2 tCCD=6, tRCD=12 tRAS=28 tRP=12 tRC=40
n_cmd=375387 n_nop=209739 n_act=46372 n_pre=46356 n_req=72920 n_rd=52086 n_write=20834 bw_util=0.3885
n_activity=366322 dram_eff=0.3981
bk0: 3250a 215185i bk1: 3246a 214745i bk2: 3232a 211361i bk3: 3232a 208803i bk4: 3242a 208218i bk5: 3244a 207096i bk6: 3264a 204014i bk7: 3264a 204112i bk8: 3264a 210990i bk9: 3264a 211000i bk10: 3264a 210634i bk11: 3264a 209146i bk12: 3264a 207366i bk13: 3264a 204209i bk14: 3264a 202041i bk15: 3264a 202044i 
dram_util_bins: 0 0 0 0 0 0 0 0 0 0
dram_eff_bins: 0 0 0 0 0 0 0 0 0 0
mrqq: max=16 avg=7.90434
Memory Partition 4: 
Cache L2_bank_008:
MSHR contents

Cache L2_bank_009:
MSHR contents

In Dram Latency Queue (total = 0): 
DRAM[4]: 16 bks, busW=8 BL=8 CL=12, tRRD=2 tCCD=6, tRCD=12 tRAS=28 tRP=12 tRC=40
n_cmd=375387 n_nop=211291 n_act=45597 n_pre=45581 n_req=72918 n_rd=52084 n_write=20834 bw_util=0.3885
n_activity=364344 dram_eff=0.4003
bk0: 3248a 215469i bk1: 3246a 215862i bk2: 3232a 212747i bk3: 3232a 211148i bk4: 3242a 210335i bk5: 3244a 209942i bk6: 3264a 207678i bk7: 3264a 206817i bk8: 3264a 213970i bk9: 3264a 210926i bk10: 3264a 212435i bk11: 3264a 211688i bk12: 3264a 209474i bk13: 3264a 205080i bk14: 3264a 205902i bk15: 3264a 202652i 
dram_util_bins: 0 0 0 0 0 0 0 0 0 0
dram_eff_bins: 0 0 0 0 0 0 0 0 0 0
mrqq: max=16 avg=8.38356
Memory Partition 5: 
Cache L2_bank_010:
MSHR contents

Cache L2_bank_011:
MSHR contents

In Dram Latency Queue (total = 0): 
DRAM[5]: 16 bks, busW=8 BL=8 CL=12, tRRD=2 tCCD=6, tRCD=12 tRAS=28 tRP=12 tRC=40
n_cmd=375387 n_nop=209657 n_act=46414 n_pre=46398 n_req=72918 n_rd=52084 n_write=20834 bw_util=0.3885
n_activity=366649 dram_eff=0.3978
bk0: 3248a 213577i bk1: 3246a 212277i bk2: 3232a 211292i bk3: 3232a 208464i bk4: 3242a 208067i bk5: 3244a 206910i bk6: 3264a 204140i bk7: 3264a 201417i bk8: 3264a 211251i bk9: 3264a 209327i bk10: 3264a 209367i bk11: 3264a 207803i bk12: 3264a 205112i bk13: 3264a 204291i bk14: 3264a 202936i bk15: 3264a 199094i 
dram_util_bins: 0 0 0 0 0 0 0 0 0 0
dram_eff_bins: 0 0 0 0 0 0 0 0 0 0
mrqq: max=16 avg=7.98267

========= L2 cache stats =========
L2_cache_bank[0]: Access = 26087, Miss = 26045, Miss_rate = 0.998, Pending_hits = 9, Reservation_fails = 809
L2_cache_bank[1]: Access = 26040, Miss = 26040, Miss_rate = 1.000, Pending_hits = 0, Reservation_fails = 718
L2_cache_bank[2]: Access = 26072, Miss = 26044, Miss_rate = 0.999, Pending_hits = 4, Reservation_fails = 720
L2_cache_bank[3]: Access = 26040, Miss = 26040, Miss_rate = 1.000, Pending_hits = 0, Reservation_fails = 581
L2_cache_bank[4]: Access = 26072, Miss = 26044, Miss_rate = 0.999, Pending_hits = 6, Reservation_fails = 1216
L2_cache_bank[5]: Access = 26042, Miss = 26042, Miss_rate = 1.000, Pending_hits = 0, Reservation_fails = 618
L2_cache_bank[6]: Access = 26072, Miss = 26044, Miss_rate = 0.999, Pending_hits = 6, Reservation_fails = 826
L2_cache_bank[7]: Access = 26042, Miss = 26042, Miss_rate = 1.000, Pending_hits = 0, Reservation_fails = 428
L2_cache_bank[8]: Access = 26042, Miss = 26042, Miss_rate = 1.000, Pending_hits = 0, Reservation_fails = 836
L2_cache_bank[9]: Access = 26042, Miss = 26042, Miss_rate = 1.000, Pending_hits = 0, Reservation_fails = 755
L2_cache_bank[10]: Access = 26042, Miss = 26042, Miss_rate = 1.000, Pending_hits = 0, Reservation_fails = 683
L2_cache_bank[11]: Access = 26042, Miss = 26042, Miss_rate = 1.000, Pending_hits = 0, Reservation_fails = 966
L2_total_cache_accesses = 312635
L2_total_cache_misses = 312509
L2_total_cache_miss_rate = 0.9996
L2_total_cache_pending_hits = 25
L2_total_cache_reservation_fails = 9156
L2_total_cache_breakdown:
	L2_cache_stats_breakdown[GLOBAL_ACC_R][MISS] = 187500
	L2_cache_stats_breakdown[GLOBAL_ACC_R][RESERVATION_FAIL] = 5607
	L2_cache_stats_breakdown[CONST_ACC_R][HIT] = 11
	L2_cache_stats_breakdown[CONST_ACC_R][HIT_RESERVED] = 3
	L2_cache_stats_breakdown[CONST_ACC_R][MISS] = 1
	L2_cache_stats_breakdown[CONST_ACC_R][RESERVATION_FAIL] = 107
	L2_cache_stats_breakdown[GLOBAL_ACC_W][MISS] = 125000
	L2_cache_stats_breakdown[GLOBAL_ACC_W][RESERVATION_FAIL] = 2721
	L2_cache_stats_breakdown[INST_ACC_R][HIT] = 90
	L2_cache_stats_breakdown[INST_ACC_R][HIT_RESERVED] = 22
	L2_cache_stats_breakdown[INST_ACC_R][MISS] = 8
	L2_cache_stats_breakdown[INST_ACC_R][RESERVATION_FAIL] = 721
L2_cache_data_port_util = 0.000
L2_cache_fill_port_util = 0.366

icnt_total_pkts_mem_to_simt=1063145
icnt_total_pkts_simt_to_mem=812635
LD_mem_lat_dist  0 0 0 0 0 0 0 0 0 0 0 0 0 0 0 0 0 0 0 0 0 0 0 0 0 0 0
ST_mem_lat_dist  0 0 0 0 0 0 0 0 0 0 0 0 0 0 0 0 0 0 0 0 0 0 0 0 0 0 0
----------------------------Interconnect-DETAILS--------------------------------
Class 0:
Packet latency average = 12.942
	minimum = 6
	maximum = 408
Network latency average = 11.8877
	minimum = 6
	maximum = 391
Slowest packet = 4386
Flit latency average = 9.29384
	minimum = 6
	maximum = 382
Slowest flit = 12889
Fragmentation average = 0.00291394
	minimum = 0
	maximum = 370
Injected packet rate average = 0.0814324
	minimum = 0.0732423 (at node 0)
	maximum = 0.0917313 (at node 15)
Accepted packet rate average = 0.0814324
	minimum = 0.0732423 (at node 0)
	maximum = 0.0917313 (at node 15)
Injected flit rate average = 0.244293
	minimum = 0.190379 (at node 0)
	maximum = 0.312045 (at node 15)
Accepted flit rate average= 0.244293
	minimum = 0.238072 (at node 16)
	maximum = 0.249306 (at node 2)
Injected packet length average = 2.99995
Accepted packet length average = 2.99995
Total in-flight flits = 0 (0 measured)
====== Overall Traffic Statistics ======
====== Traffic class 0 ======
Packet latency average = 12.942 (1 samples)
	minimum = 6 (1 samples)
	maximum = 408 (1 samples)
Network latency average = 11.8877 (1 samples)
	minimum = 6 (1 samples)
	maximum = 391 (1 samples)
Flit latency average = 9.29384 (1 samples)
	minimum = 6 (1 samples)
	maximum = 382 (1 samples)
Fragmentation average = 0.00291394 (1 samples)
	minimum = 0 (1 samples)
	maximum = 370 (1 samples)
Injected packet rate average = 0.0814324 (1 samples)
	minimum = 0.0732423 (1 samples)
	maximum = 0.0917313 (1 samples)
Accepted packet rate average = 0.0814324 (1 samples)
	minimum = 0.0732423 (1 samples)
	maximum = 0.0917313 (1 samples)
Injected flit rate average = 0.244293 (1 samples)
	minimum = 0.190379 (1 samples)
	maximum = 0.312045 (1 samples)
Accepted flit rate average = 0.244293 (1 samples)
	minimum = 0.238072 (1 samples)
	maximum = 0.249306 (1 samples)
Injected packet size average = 2.99995 (1 samples)
Accepted packet size average = 2.99995 (1 samples)
Hops average = 1 (1 samples)
----------------------------END-of-Interconnect-DETAILS-------------------------


gpgpu_simulation_time = 0 days, 0 hrs, 5 min, 26 sec (326 sec)
gpgpu_simulation_rate = 600557 (inst/sec)
gpgpu_simulation_rate = 872 (cycle/sec)
GPGPU-Sim: synchronize waiting for inactive GPU simulation
GPGPU-Sim API: Stream Manager State
GPGPU-Sim: detected inactive GPU simulation thread
Options count             : 4000000     
BlackScholesGPU() time    : 325107.718750 msec
Effective memory bandwidth: 0.000123 GB/s
Gigaoptions per second    : 0.000012     
Reading back GPU results...
Checking the results...
...running CPU calculations.
Comparing the results...
L1 norm: 1.729535E-07
Max absolute error: 1.192093E-05
TEST PASSED
Shutting down...
...releasing GPU memory.
...releasing CPU memory.
Shutdown done.
GPGPU-Sim: exit_simulation called
GPGPU-Sim: simulation thread signaled exit

Press ENTER to exit...
