

        *** GPGPU-Sim Simulator Version 3.2.2  [build 0] ***


GPGPU-Sim PTX: simulation mode 0 (can change with PTX_SIM_MODE_FUNC environment variable:
               1=functional simulation only, 0=detailed performance simulator)
GPGPU-Sim: Configuration options:

-network_mode                           1 # Interconnection network mode
-inter_config_file   config_fermi_islip.icnt # Interconnection network config file
-gpgpu_ptx_use_cuobjdump                    1 # Use cuobjdump to extract ptx and sass from binaries
-gpgpu_experimental_lib_support                    0 # Try to extract code from cuda libraries [Broken because of unknown cudaGetExportTable]
-gpgpu_ptx_convert_to_ptxplus                    0 # Convert SASS (native ISA) to ptxplus and run ptxplus
-gpgpu_ptx_force_max_capability                   20 # Force maximum compute capability
-gpgpu_ptx_inst_debug_to_file                    0 # Dump executed instructions' debug information to file
-gpgpu_ptx_inst_debug_file       inst_debug.txt # Executed instructions' debug output file
-gpgpu_ptx_inst_debug_thread_uid                    1 # Thread UID for executed instructions' debug output
-gpgpu_simd_model                       1 # 1 = post-dominator
-gpgpu_shader_core_pipeline              1536:32 # shader core pipeline config, i.e., {<nthread>:<warpsize>}
-gpgpu_tex_cache:l1  4:128:24,L:R:m:N:L,F:128:4,128:2 # per-shader L1 texture cache  (READ-ONLY) config  {<nsets>:<bsize>:<assoc>,<rep>:<wr>:<alloc>:<wr_alloc>,<mshr>:<N>:<merge>,<mq>:<rf>}
-gpgpu_const_cache:l1 64:64:2,L:R:f:N:L,A:2:32,4 # per-shader L1 constant memory cache  (READ-ONLY) config  {<nsets>:<bsize>:<assoc>,<rep>:<wr>:<alloc>:<wr_alloc>,<mshr>:<N>:<merge>,<mq>} 
-gpgpu_cache:il1     4:128:4,L:R:f:N:L,A:2:32,4 # shader L1 instruction cache config  {<nsets>:<bsize>:<assoc>,<rep>:<wr>:<alloc>:<wr_alloc>,<mshr>:<N>:<merge>,<mq>} 
-gpgpu_cache:dl1     64:128:1,L:L:m:N:H,A:32:8,8 # per-shader L1 data cache config  {<nsets>:<bsize>:<assoc>,<rep>:<wr>:<alloc>:<wr_alloc>,<mshr>:<N>:<merge>,<mq> | none}
-gpgpu_cache:dl1PrefL1                 none # per-shader L1 data cache config  {<nsets>:<bsize>:<assoc>,<rep>:<wr>:<alloc>:<wr_alloc>,<mshr>:<N>:<merge>,<mq> | none}
-gpgpu_cache:dl1PreShared                 none # per-shader L1 data cache config  {<nsets>:<bsize>:<assoc>,<rep>:<wr>:<alloc>:<wr_alloc>,<mshr>:<N>:<merge>,<mq> | none}
-gmem_skip_L1D                          0 # global memory access skip L1D cache (implements -Xptxas -dlcm=cg, default=no skip)
-gpgpu_perfect_mem                      0 # enable perfect memory mode (no cache miss)
-n_regfile_gating_group                    4 # group of lanes that should be read/written together)
-gpgpu_clock_gated_reg_file                    0 # enable clock gated reg file for power calculations
-gpgpu_clock_gated_lanes                    0 # enable clock gated lanes for power calculations
-gpgpu_shader_registers                32768 # Number of registers per shader core. Limits number of concurrent CTAs. (default 8192)
-gpgpu_shader_cta                       8 # Maximum number of concurrent CTAs in shader (default 8)
-gpgpu_num_cta_barriers                   16 # Maximum number of named barriers per CTA (default 16)
-gpgpu_n_clusters                      15 # number of processing clusters
-gpgpu_n_cores_per_cluster                    1 # number of simd cores per cluster
-gpgpu_n_cluster_ejection_buffer_size                    8 # number of packets in ejection buffer
-gpgpu_n_ldst_response_buffer_size                    2 # number of response packets in ld/st unit ejection buffer
-gpgpu_shmem_size                   16384 # Size of shared memory per shader core (default 16kB)
-gpgpu_shmem_size                   49152 # Size of shared memory per shader core (default 16kB)
-gpgpu_shmem_size_PrefL1                16384 # Size of shared memory per shader core (default 16kB)
-gpgpu_shmem_size_PrefShared                16384 # Size of shared memory per shader core (default 16kB)
-gpgpu_shmem_num_banks                   32 # Number of banks in the shared memory in each shader core (default 16)
-gpgpu_shmem_limited_broadcast                    0 # Limit shared memory to do one broadcast per cycle (default on)
-gpgpu_shmem_warp_parts                    1 # Number of portions a warp is divided into for shared memory bank conflict check 
-gpgpu_warpdistro_shader                   -1 # Specify which shader core to collect the warp size distribution from
-gpgpu_warp_issue_shader                    0 # Specify which shader core to collect the warp issue distribution from
-gpgpu_local_mem_map                    1 # Mapping from local memory space address to simulated GPU physical address space (default = enabled)
-gpgpu_num_reg_banks                   16 # Number of register banks (default = 8)
-gpgpu_reg_bank_use_warp_id                    0 # Use warp ID in mapping registers to banks (default = off)
-gpgpu_operand_collector_num_units_sp                    6 # number of collector units (default = 4)
-gpgpu_operand_collector_num_units_sfu                    8 # number of collector units (default = 4)
-gpgpu_operand_collector_num_units_mem                    2 # number of collector units (default = 2)
-gpgpu_operand_collector_num_units_gen                    0 # number of collector units (default = 0)
-gpgpu_operand_collector_num_in_ports_sp                    2 # number of collector unit in ports (default = 1)
-gpgpu_operand_collector_num_in_ports_sfu                    1 # number of collector unit in ports (default = 1)
-gpgpu_operand_collector_num_in_ports_mem                    1 # number of collector unit in ports (default = 1)
-gpgpu_operand_collector_num_in_ports_gen                    0 # number of collector unit in ports (default = 0)
-gpgpu_operand_collector_num_out_ports_sp                    2 # number of collector unit in ports (default = 1)
-gpgpu_operand_collector_num_out_ports_sfu                    1 # number of collector unit in ports (default = 1)
-gpgpu_operand_collector_num_out_ports_mem                    1 # number of collector unit in ports (default = 1)
-gpgpu_operand_collector_num_out_ports_gen                    0 # number of collector unit in ports (default = 0)
-gpgpu_coalesce_arch                   13 # Coalescing arch (default = 13, anything else is off for now)
-gpgpu_num_sched_per_core                    2 # Number of warp schedulers per core
-gpgpu_max_insn_issue_per_warp                    1 # Max number of instructions that can be issued per warp in one cycle by scheduler
-gpgpu_simt_core_sim_order                    1 # Select the simulation order of cores in a cluster (0=Fix, 1=Round-Robin)
-gpgpu_pipeline_widths        2,1,1,2,1,1,2 # Pipeline widths ID_OC_SP,ID_OC_SFU,ID_OC_MEM,OC_EX_SP,OC_EX_SFU,OC_EX_MEM,EX_WB
-gpgpu_num_sp_units                     2 # Number of SP units (default=1)
-gpgpu_num_sfu_units                    1 # Number of SF units (default=1)
-gpgpu_num_mem_units                    1 # Number if ldst units (default=1) WARNING: not hooked up to anything
-gpgpu_scheduler                      gto # Scheduler configuration: < lrr | gto | two_level_active > If two_level_active:<num_active_warps>:<inner_prioritization>:<outer_prioritization>For complete list of prioritization values see shader.h enum scheduler_prioritization_typeDefault: gto
-gpgpu_dram_scheduler                    1 # 0 = fifo, 1 = FR-FCFS (defaul)
-gpgpu_dram_partition_queues              8:8:8:8 # i2$:$2d:d2$:$2i
-l2_ideal                               0 # Use a ideal L2 cache that always hit
-gpgpu_cache:dl2     64:128:8,L:B:m:W:L,A:32:4,4:0,32 # unified banked L2 data cache config  {<nsets>:<bsize>:<assoc>,<rep>:<wr>:<alloc>:<wr_alloc>,<mshr>:<N>:<merge>,<mq>}
-gpgpu_cache:dl2_texture_only                    0 # L2 cache used for texture only
-gpgpu_n_mem                            6 # number of memory modules (e.g. memory controllers) in gpu
-gpgpu_n_sub_partition_per_mchannel                    2 # number of memory subpartition in each memory module
-gpgpu_n_mem_per_ctrlr                    2 # number of memory chips per memory controller
-gpgpu_memlatency_stat                   14 # track and display latency statistics 0x2 enables MC, 0x4 enables queue logs
-gpgpu_frfcfs_dram_sched_queue_size                   16 # 0 = unlimited (default); # entries per chip
-gpgpu_dram_return_queue_size                  116 # 0 = unlimited (default); # entries per chip
-gpgpu_dram_buswidth                    4 # default = 4 bytes (8 bytes per cycle at DDR)
-gpgpu_dram_burst_length                    8 # Burst length of each DRAM request (default = 4 data bus cycle)
-dram_data_command_freq_ratio                    4 # Frequency ratio between DRAM data bus and command bus (default = 2 times, i.e. DDR)
-gpgpu_dram_timing_opt nbk=16:CCD=2:RRD=6:RCD=12:RAS=28:RP=12:RC=40: CL=12:WL=4:CDLR=5:WR=12:nbkgrp=4:CCDL=3:RTPL=2 # DRAM timing parameters = {nbk:tCCD:tRRD:tRCD:tRAS:tRP:tRC:CL:WL:tCDLR:tWR:nbkgrp:tCCDL:tRTPL}
-rop_latency                          120 # ROP queue latency (default 85)
-dram_latency                         100 # DRAM latency (default 30)
-gpgpu_mem_addr_mapping dramid@8;00000000.00000000.00000000.00000000.0000RRRR.RRRRRRRR.BBBCCCCB.CCSSSSSS # mapping memory address to dram model {dramid@<start bit>;<memory address map>}
-gpgpu_mem_addr_test                    0 # run sweep test to check address mapping for aliased address
-gpgpu_mem_address_mask                    1 # 0 = old addressing mask, 1 = new addressing mask, 2 = new add. mask + flipped bank sel and chip sel bits
-gpuwattch_xml_file  gpuwattch_gtx480.xml # GPUWattch XML file
-power_simulation_enabled                    1 # Turn on power simulator (1=On, 0=Off)
-power_per_cycle_dump                    0 # Dump detailed power output each cycle
-power_trace_enabled                    0 # produce a file for the power trace (1=On, 0=Off)
-power_trace_zlevel                     6 # Compression level of the power trace output log (0=no comp, 9=highest)
-steady_power_levels_enabled                    0 # produce a file for the steady power levels (1=On, 0=Off)
-steady_state_definition                  8:4 # allowed deviation:number of samples
-gpgpu_max_cycle                        0 # terminates gpu simulation early (0 = no limit)
-gpgpu_max_insn                         0 # terminates gpu simulation early (0 = no limit)
-gpgpu_max_cta                          0 # terminates gpu simulation early (0 = no limit)
-gpgpu_runtime_stat                   500 # display runtime statistics such as dram utilization {<freq>:<flag>}
-liveness_message_freq                    1 # Minimum number of seconds between simulation liveness messages (0 = always print)
-gpgpu_flush_l1_cache                    0 # Flush L1 cache at the end of each kernel call
-gpgpu_flush_l2_cache                    0 # Flush L2 cache at the end of each kernel call
-gpgpu_deadlock_detect                    1 # Stop the simulation at deadlock (1=on (default), 0=off)
-gpgpu_ptx_instruction_classification                    0 # if enabled will classify ptx instruction types per kernel (Max 255 kernels now)
-gpgpu_ptx_sim_mode                     0 # Select between Performance (default) or Functional simulation (1)
-gpgpu_clock_domains 700.0:700.0:700.0:924.0 # Clock Domain Frequencies in MhZ {<Core Clock>:<ICNT Clock>:<L2 Clock>:<DRAM Clock>}
-gpgpu_max_concurrent_kernel                    8 # maximum kernels that can run concurrently on GPU
-gpgpu_cflog_interval                    0 # Interval between each snapshot in control flow logger
-visualizer_enabled                     0 # Turn on visualizer output (1=On, 0=Off)
-visualizer_outputfile                 NULL # Specifies the output log file for visualizer
-visualizer_zlevel                      6 # Compression level of the visualizer output log (0=no comp, 9=highest)
-trace_enabled                          0 # Turn on traces
-trace_components                    none # comma seperated list of traces to enable. Complete list found in trace_streams.tup. Default none
-trace_sampling_core                    0 # The core which is printed using CORE_DPRINTF. Default 0
-trace_sampling_memory_partition                   -1 # The memory partition which is printed using MEMPART_DPRINTF. Default -1 (i.e. all)
-enable_ptx_file_line_stats                    1 # Turn on PTX source line statistic profiling. (1 = On)
-ptx_line_stats_filename gpgpu_inst_stats.txt # Output file for PTX source line statistics.
-save_embedded_ptx                      0 # saves ptx files embedded in binary as <n>.ptx
-keep                                   0 # keep intermediate files created by GPGPU-Sim when interfacing with external programs
-gpgpu_ptx_save_converted_ptxplus                    0 # Saved converted ptxplus to a file
-ptx_opcode_latency_int         4,13,4,5,145 # Opcode latencies for integers <ADD,MAX,MUL,MAD,DIV>Default 1,1,19,25,145
-ptx_opcode_latency_fp          4,13,4,5,39 # Opcode latencies for single precision floating points <ADD,MAX,MUL,MAD,DIV>Default 1,1,1,1,30
-ptx_opcode_latency_dp         8,19,8,8,330 # Opcode latencies for double precision floating points <ADD,MAX,MUL,MAD,DIV>Default 8,8,8,8,335
-ptx_opcode_initiation_int            1,2,2,1,8 # Opcode initiation intervals for integers <ADD,MAX,MUL,MAD,DIV>Default 1,1,4,4,32
-ptx_opcode_initiation_fp            1,2,1,1,4 # Opcode initiation intervals for single precision floating points <ADD,MAX,MUL,MAD,DIV>Default 1,1,1,1,5
-ptx_opcode_initiation_dp         8,16,8,8,130 # Opcode initiation intervals for double precision floating points <ADD,MAX,MUL,MAD,DIV>Default 8,8,8,8,130
DRAM Timing Options:
nbk                                    16 # number of banks
CCD                                     2 # column to column delay
RRD                                     6 # minimal delay between activation of rows in different banks
RCD                                    12 # row to column delay
RAS                                    28 # time needed to activate row
RP                                     12 # time needed to precharge (deactivate) row
RC                                     40 # row cycle time
CDLR                                    5 # switching from write to read (changes tWTR)
WR                                     12 # last data-in to row precharge
CL                                     12 # CAS latency
WL                                      4 # Write latency
nbkgrp                                  4 # number of bank groups
CCDL                                    3 # column to column delay between accesses to different bank groups
RTPL                                    2 # read to precharge delay between accesses to different bank groups
Total number of memory sub partition = 12
addr_dec_mask[CHIP]  = 0000000000000000 	high:64 low:0
addr_dec_mask[BK]    = 000000000000e100 	high:16 low:8
addr_dec_mask[ROW]   = 000000000fff0000 	high:28 low:16
addr_dec_mask[COL]   = 0000000000001eff 	high:13 low:0
addr_dec_mask[BURST] = 000000000000003f 	high:6 low:0
sub_partition_id_mask = 0000000000000100
GPGPU-Sim uArch: clock freqs: 700000000.000000:700000000.000000:700000000.000000:924000000.000000
GPGPU-Sim uArch: clock periods: 0.00000000142857142857:0.00000000142857142857:0.00000000142857142857:0.00000000108225108225
*** Initializing Memory Statistics ***
GPGPU-Sim uArch: interconnect node map (shaderID+MemID to icntID)
GPGPU-Sim uArch: Memory nodes ID start from index: 15
GPGPU-Sim uArch:    0   1   2   3   4
GPGPU-Sim uArch:    5   6   7   8   9
GPGPU-Sim uArch:   10  11  12  13  14
GPGPU-Sim uArch:   15  16  17  18  19
GPGPU-Sim uArch:   20  21  22  23  24
GPGPU-Sim uArch:   25  26
GPGPU-Sim uArch: interconnect node reverse map (icntID to shaderID+MemID)
GPGPU-Sim uArch: Memory nodes start from ID: 15
GPGPU-Sim uArch:    0   1   2   3   4
GPGPU-Sim uArch:    5   6   7   8   9
GPGPU-Sim uArch:   10  11  12  13  14
GPGPU-Sim uArch:   15  16  17  18  19
GPGPU-Sim uArch:   20  21  22  23  24
GPGPU-Sim uArch:   25  26
baa34152d8f8621bdfd81a71b848c7b0  /home/scratch/adwait/applications/benchmarks/CUDA/CP/gpgpu_ptx_sim__CP
GPGPU-Sim uArch: performance model initialization complete.
GPGPU-Sim PTX: __cudaRegisterFatBinary, fat_cubin_handle = 1, filename=src/cuda_short/cuenergy_pre8_coalesce.cu
self exe links to: /home/scratch/adwait/applications/benchmarks/CUDA/CP/gpgpu_ptx_sim__CP
Running md5sum using "md5sum /home/scratch/adwait/applications/benchmarks/CUDA/CP/gpgpu_ptx_sim__CP "
Running cuobjdump using "$CUDA_INSTALL_PATH/bin/cuobjdump -ptx -elf -sass /home/scratch/adwait/applications/benchmarks/CUDA/CP/gpgpu_ptx_sim__CP > _cuobjdump_complete_output_8PW9S1"
Parsing file _cuobjdump_complete_output_8PW9S1
######### cuobjdump parser ########
## Adding new section PTX
Adding ptx filename: _cuobjdump_1.ptx
Adding arch: sm_10
Adding identifier: src/cuda_short/main.cu
## Adding new section ELF
Adding arch: sm_10
Adding identifier: src/cuda_short/main.cu
## Adding new section PTX
Adding ptx filename: _cuobjdump_2.ptx
Adding arch: sm_10
Adding identifier: src/cuda_short/cuenergy_pre8_coalesce.cu
## Adding new section ELF
Adding arch: sm_10
Adding identifier: src/cuda_short/cuenergy_pre8_coalesce.cu
Done parsing!!!
GPGPU-Sim PTX: __cudaRegisterFunction _Z7cenergyifPf : hostFun 0x0x401ec1, fat_cubin_handle = 1
GPGPU-Sim PTX: allocating constant region for "atominfo" from 0x100 to 0xfb00 (global memory space) 1
GPGPU-Sim PTX: instruction assembly for function '_Z7cenergyifPf'...   done.
GPGPU-Sim PTX: finding reconvergence points for '_Z7cenergyifPf'...
GPGPU-Sim PTX: Finding dominators for '_Z7cenergyifPf'...
GPGPU-Sim PTX: Finding immediate dominators for '_Z7cenergyifPf'...
GPGPU-Sim PTX: Finding postdominators for '_Z7cenergyifPf'...
GPGPU-Sim PTX: Finding immediate postdominators for '_Z7cenergyifPf'...
GPGPU-Sim PTX: pre-decoding instructions for '_Z7cenergyifPf'...
GPGPU-Sim PTX: reconvergence points for _Z7cenergyifPf...
GPGPU-Sim PTX:  1 (potential) branch divergence @  PC=0x048 (_1.ptx:71) @%p1 bra $Lt_0_2306;
GPGPU-Sim PTX:    immediate post dominator      @  PC=0x1c0 (_1.ptx:127) cvt.u32.u16 %r20, %nctaid.x;
GPGPU-Sim PTX:  2 (potential) branch divergence @  PC=0x178 (_1.ptx:115) @%p2 bra $Lt_0_1794;
GPGPU-Sim PTX:    immediate post dominator      @  PC=0x180 (_1.ptx:116) bra.uni $Lt_0_1282;
GPGPU-Sim PTX:  3 (potential) branch divergence @  PC=0x180 (_1.ptx:116) bra.uni $Lt_0_1282;
GPGPU-Sim PTX:    immediate post dominator      @  PC=0x1c0 (_1.ptx:127) cvt.u32.u16 %r20, %nctaid.x;
GPGPU-Sim PTX: ... end of reconvergence points for _Z7cenergyifPf
GPGPU-Sim PTX: ... done pre-decoding instructions for '_Z7cenergyifPf'.
GPGPU-Sim PTX: finished parsing EMBEDDED .ptx file _1.ptx
Adding _cuobjdump_2.ptx with cubin handle 1
GPGPU-Sim PTX: extracting embedded .ptx to temporary file "_ptx_t14dUg"
Running: cat _ptx_t14dUg | sed 's/.version 1.5/.version 1.4/' | sed 's/, texmode_independent//' | sed 's/\(\.extern \.const\[1\] .b8 \w\+\)\[\]/\1\[1\]/' | sed 's/const\[.\]/const\[0\]/g' > _ptx2_EfevWv
GPGPU-Sim PTX: generating ptxinfo using "$CUDA_INSTALL_PATH/bin/ptxas --gpu-name=sm_20 -v _ptx2_EfevWv --output-file  /dev/null 2> _ptx_t14dUginfo"
GPGPU-Sim PTX: Kernel '_Z7cenergyifPf' : regs=15, lmem=0, smem=0, cmem=64048
GPGPU-Sim PTX: removing ptxinfo using "rm -f _ptx_t14dUg _ptx2_EfevWv _ptx_t14dUginfo"
GPGPU-Sim PTX: loading globals with explicit initializers... 
GPGPU-Sim PTX: finished loading globals (0 bytes total).
GPGPU-Sim PTX: loading constants with explicit initializers...  done.
GPGPU-Sim PTX: __cudaRegisterVar: hostVar = 0x516400; deviceAddress = atominfo; deviceName = atominfo
GPGPU-Sim PTX: __cudaRegisterVar: Registering const memory space of 64000 bytes
GPGPU-Sim PTX registering constant atominfo (64000 bytes) to name mapping
GPGPU-Sim PTX: __cudaRegisterFatBinary, fat_cubin_handle = 2, filename=src/cuda_short/main.cu
CUDA accelerated coulombic potential microbenchmark
Original version by John E. Stone <johns@ks.uiuc.edu>
This version maintained by Chris Rodrigues
GPGPU-Sim PTX: cudaMemcpyToSymbol: symbol = 0x516400
GPGPU-Sim PTX: starting gpgpu_ptx_sim_memcpy_symbol with hostVar 0x0x516400
GPGPU-Sim PTX: gpgpu_ptx_sim_memcpy_symbol: Found PTX symbol w/ hostVar=0x516400
GPGPU-Sim PTX: gpgpu_ptx_sim_memcpy_symbol: copying const memory 3200 bytes  to  symbol atominfo+0 @0x100 ...

GPGPU-Sim PTX: cudaLaunch for 0x0x401ec1 (mode=performance simulation) on stream 0
GPGPU-Sim PTX: pushing kernel '_Z7cenergyifPf' to stream 0, gridDim= (8,32,1) blockDim = (16,8,1) 
kernel '_Z7cenergyifPf' transfer to GPU hardware scheduler
GPGPU-Sim uArch: Shader 1 bind to kernel 1 '_Z7cenergyifPf'
GPGPU-Sim uArch: CTA/core = 8, limited by: cta_limit
GPGPU-Sim uArch: core:  1, cta: 0 initialized @(1,0)
GPGPU-Sim uArch: Shader 2 bind to kernel 1 '_Z7cenergyifPf'
GPGPU-Sim uArch: core:  2, cta: 0 initialized @(1,0)
GPGPU-Sim uArch: Shader 3 bind to kernel 1 '_Z7cenergyifPf'
GPGPU-Sim uArch: core:  3, cta: 0 initialized @(1,0)
GPGPU-Sim uArch: Shader 4 bind to kernel 1 '_Z7cenergyifPf'
GPGPU-Sim uArch: core:  4, cta: 0 initialized @(1,0)
GPGPU-Sim uArch: Shader 5 bind to kernel 1 '_Z7cenergyifPf'
GPGPU-Sim uArch: core:  5, cta: 0 initialized @(1,0)
GPGPU-Sim uArch: Shader 6 bind to kernel 1 '_Z7cenergyifPf'
GPGPU-Sim uArch: core:  6, cta: 0 initialized @(1,0)
GPGPU-Sim uArch: Shader 7 bind to kernel 1 '_Z7cenergyifPf'
GPGPU-Sim uArch: core:  7, cta: 0 initialized @(1,0)
GPGPU-Sim uArch: Shader 8 bind to kernel 1 '_Z7cenergyifPf'
GPGPU-Sim uArch: core:  8, cta: 0 initialized @(1,0)
GPGPU-Sim uArch: Shader 9 bind to kernel 1 '_Z7cenergyifPf'
GPGPU-Sim uArch: core:  9, cta: 0 initialized @(1,0)
GPGPU-Sim uArch: Shader 10 bind to kernel 1 '_Z7cenergyifPf'
GPGPU-Sim uArch: core: 10, cta: 0 initialized @(1,0)
GPGPU-Sim uArch: Shader 11 bind to kernel 1 '_Z7cenergyifPf'
GPGPU-Sim uArch: core: 11, cta: 0 initialized @(1,0)
GPGPU-Sim uArch: Shader 12 bind to kernel 1 '_Z7cenergyifPf'
GPGPU-Sim uArch: core: 12, cta: 0 initialized @(1,0)
GPGPU-Sim uArch: Shader 13 bind to kernel 1 '_Z7cenergyifPf'
GPGPU-Sim uArch: core: 13, cta: 0 initialized @(1,0)
GPGPU-Sim uArch: Shader 14 bind to kernel 1 '_Z7cenergyifPf'
GPGPU-Sim uArch: core: 14, cta: 0 initialized @(1,0)
GPGPU-Sim uArch: Shader 0 bind to kernel 1 '_Z7cenergyifPf'
GPGPU-Sim uArch: core:  0, cta: 0 initialized @(1,0)
GPGPU-Sim uArch: core:  1, cta: 1 initialized @(2,0)
GPGPU-Sim uArch: core:  2, cta: 1 initialized @(2,0)
GPGPU-Sim uArch: core:  3, cta: 1 initialized @(2,0)
GPGPU-Sim uArch: core:  4, cta: 1 initialized @(2,0)
GPGPU-Sim uArch: core:  5, cta: 1 initialized @(2,0)
GPGPU-Sim uArch: core:  6, cta: 1 initialized @(2,0)
GPGPU-Sim uArch: core:  7, cta: 1 initialized @(2,0)
GPGPU-Sim uArch: core:  8, cta: 1 initialized @(2,0)
GPGPU-Sim uArch: core:  9, cta: 1 initialized @(2,0)
GPGPU-Sim uArch: core: 10, cta: 1 initialized @(2,0)
GPGPU-Sim uArch: core: 11, cta: 1 initialized @(2,0)
GPGPU-Sim uArch: core: 12, cta: 1 initialized @(2,0)
GPGPU-Sim uArch: core: 13, cta: 1 initialized @(2,0)
GPGPU-Sim uArch: core: 14, cta: 1 initialized @(2,0)
GPGPU-Sim uArch: core:  0, cta: 1 initialized @(2,0)
GPGPU-Sim uArch: core:  1, cta: 2 initialized @(3,0)
GPGPU-Sim uArch: core:  2, cta: 2 initialized @(3,0)
GPGPU-Sim uArch: core:  3, cta: 2 initialized @(3,0)
GPGPU-Sim uArch: core:  4, cta: 2 initialized @(3,0)
GPGPU-Sim uArch: core:  5, cta: 2 initialized @(3,0)
GPGPU-Sim uArch: core:  6, cta: 2 initialized @(3,0)
GPGPU-Sim uArch: core:  7, cta: 2 initialized @(3,0)
GPGPU-Sim uArch: core:  8, cta: 2 initialized @(3,0)
GPGPU-Sim uArch: core:  9, cta: 2 initialized @(3,0)
GPGPU-Sim uArch: core: 10, cta: 2 initialized @(3,0)
GPGPU-Sim uArch: core: 11, cta: 2 initialized @(3,0)
GPGPU-Sim uArch: core: 12, cta: 2 initialized @(3,0)
GPGPU-Sim uArch: core: 13, cta: 2 initialized @(3,0)
GPGPU-Sim uArch: core: 14, cta: 2 initialized @(3,0)
GPGPU-Sim uArch: core:  0, cta: 2 initialized @(3,0)
GPGPU-Sim uArch: core:  1, cta: 3 initialized @(4,0)
GPGPU-Sim uArch: core:  2, cta: 3 initialized @(4,0)
GPGPU-Sim uArch: core:  3, cta: 3 initialized @(4,0)
GPGPU-Sim uArch: core:  4, cta: 3 initialized @(4,0)
GPGPU-Sim uArch: core:  5, cta: 3 initialized @(4,0)
GPGPU-Sim uArch: core:  6, cta: 3 initialized @(4,0)
GPGPU-Sim uArch: core:  7, cta: 3 initialized @(4,0)
GPGPU-Sim uArch: core:  8, cta: 3 initialized @(4,0)
GPGPU-Sim uArch: core:  9, cta: 3 initialized @(4,0)
GPGPU-Sim uArch: core: 10, cta: 3 initialized @(4,0)
GPGPU-Sim uArch: core: 11, cta: 3 initialized @(4,0)
GPGPU-Sim uArch: core: 12, cta: 3 initialized @(4,0)
GPGPU-Sim uArch: core: 13, cta: 3 initialized @(4,0)
GPGPU-Sim uArch: core: 14, cta: 3 initialized @(4,0)
GPGPU-Sim uArch: core:  0, cta: 3 initialized @(4,0)
GPGPU-Sim uArch: core:  1, cta: 4 initialized @(5,0)
GPGPU-Sim uArch: core:  2, cta: 4 initialized @(5,0)
GPGPU-Sim uArch: core:  3, cta: 4 initialized @(5,0)
GPGPU-Sim uArch: core:  4, cta: 4 initialized @(5,0)
GPGPU-Sim uArch: core:  5, cta: 4 initialized @(5,0)
GPGPU-Sim uArch: core:  6, cta: 4 initialized @(5,0)
GPGPU-Sim uArch: core:  7, cta: 4 initialized @(5,0)
GPGPU-Sim uArch: core:  8, cta: 4 initialized @(5,0)
GPGPU-Sim uArch: core:  9, cta: 4 initialized @(5,0)
GPGPU-Sim uArch: core: 10, cta: 4 initialized @(5,0)
GPGPU-Sim uArch: core: 11, cta: 4 initialized @(5,0)
GPGPU-Sim uArch: core: 12, cta: 4 initialized @(5,0)
GPGPU-Sim uArch: core: 13, cta: 4 initialized @(5,0)
GPGPU-Sim uArch: core: 14, cta: 4 initialized @(5,0)
GPGPU-Sim uArch: core:  0, cta: 4 initialized @(5,0)
GPGPU-Sim uArch: core:  1, cta: 5 initialized @(6,0)
GPGPU-Sim uArch: core:  2, cta: 5 initialized @(6,0)
GPGPU-Sim uArch: core:  3, cta: 5 initialized @(6,0)
GPGPU-Sim uArch: core:  4, cta: 5 initialized @(6,0)
GPGPU-Sim uArch: core:  5, cta: 5 initialized @(6,0)
GPGPU-Sim uArch: core:  6, cta: 5 initialized @(6,0)
GPGPU-Sim uArch: core:  7, cta: 5 initialized @(6,0)
GPGPU-Sim uArch: core:  8, cta: 5 initialized @(6,0)
GPGPU-Sim uArch: core:  9, cta: 5 initialized @(6,0)
GPGPU-Sim uArch: core: 10, cta: 5 initialized @(6,0)
GPGPU-Sim uArch: core: 11, cta: 5 initialized @(6,0)
GPGPU-Sim uArch: core: 12, cta: 5 initialized @(6,0)
GPGPU-Sim uArch: core: 13, cta: 5 initialized @(6,0)
GPGPU-Sim uArch: core: 14, cta: 5 initialized @(6,0)
GPGPU-Sim uArch: core:  0, cta: 5 initialized @(6,0)
GPGPU-Sim uArch: core:  1, cta: 6 initialized @(7,0)
GPGPU-Sim uArch: core:  2, cta: 6 initialized @(7,0)
GPGPU-Sim uArch: core:  3, cta: 6 initialized @(7,0)
GPGPU-Sim uArch: core:  4, cta: 6 initialized @(7,0)
GPGPU-Sim uArch: core:  5, cta: 6 initialized @(7,0)
GPGPU-Sim uArch: core:  6, cta: 6 initialized @(7,0)
GPGPU-Sim uArch: core:  7, cta: 6 initialized @(7,0)
GPGPU-Sim uArch: core:  8, cta: 6 initialized @(7,0)
GPGPU-Sim uArch: core:  9, cta: 6 initialized @(7,0)
GPGPU-Sim uArch: core: 10, cta: 6 initialized @(7,0)
GPGPU-Sim uArch: core: 11, cta: 6 initialized @(7,0)
GPGPU-Sim uArch: core: 12, cta: 6 initialized @(7,0)
GPGPU-Sim uArch: core: 13, cta: 6 initialized @(7,0)
GPGPU-Sim uArch: core: 14, cta: 6 initialized @(7,0)
GPGPU-Sim uArch: core:  0, cta: 6 initialized @(7,0)
GPGPU-Sim uArch: core:  1, cta: 7 initialized @(8,0)
GPGPU-Sim uArch: core:  2, cta: 7 initialized @(8,0)
GPGPU-Sim uArch: core:  3, cta: 7 initialized @(8,0)
GPGPU-Sim uArch: core:  4, cta: 7 initialized @(8,0)
GPGPU-Sim uArch: core:  5, cta: 7 initialized @(8,0)
GPGPU-Sim uArch: core:  6, cta: 7 initialized @(8,0)
GPGPU-Sim uArch: core:  7, cta: 7 initialized @(8,0)
GPGPU-Sim uArch: core:  8, cta: 7 initialized @(8,0)
GPGPU-Sim uArch: core:  9, cta: 7 initialized @(8,0)
GPGPU-Sim uArch: core: 10, cta: 7 initialized @(8,0)
GPGPU-Sim uArch: core: 11, cta: 7 initialized @(8,0)
GPGPU-Sim uArch: core: 12, cta: 7 initialized @(8,0)
GPGPU-Sim uArch: core: 13, cta: 7 initialized @(8,0)
GPGPU-Sim uArch: core: 14, cta: 7 initialized @(8,0)
GPGPU-Sim uArch: core:  0, cta: 7 initialized @(8,0)
GPGPU-Sim PTX: 100000 instructions simulated : ctaid=(5,1,0) tid=(15,3,0)
GPGPU-Sim uArch: cycles simulated: 500  inst.: 107520 (ipc=215.0) sim_rate=107520 (inst/sec) elapsed = 0:0:00:01 / Tue Apr 16 16:54:33 2019
GPGPU-Sim PTX: 200000 instructions simulated : ctaid=(6,10,0) tid=(15,5,0)
GPGPU-Sim PTX: 300000 instructions simulated : ctaid=(1,2,0) tid=(15,3,0)
GPGPU-Sim PTX: 400000 instructions simulated : ctaid=(2,1,0) tid=(15,7,0)
GPGPU-Sim uArch: cycles simulated: 1500  inst.: 454912 (ipc=303.3) sim_rate=227456 (inst/sec) elapsed = 0:0:00:02 / Tue Apr 16 16:54:34 2019
GPGPU-Sim PTX: 500000 instructions simulated : ctaid=(4,12,0) tid=(15,1,0)
GPGPU-Sim PTX: 600000 instructions simulated : ctaid=(3,13,0) tid=(15,1,0)
GPGPU-Sim PTX: 700000 instructions simulated : ctaid=(1,1,0) tid=(15,5,0)
GPGPU-Sim PTX: 800000 instructions simulated : ctaid=(0,8,0) tid=(15,7,0)
GPGPU-Sim PTX: 900000 instructions simulated : ctaid=(6,4,0) tid=(15,5,0)
GPGPU-Sim PTX: 1000000 instructions simulated : ctaid=(2,6,0) tid=(15,3,0)
GPGPU-Sim uArch: cycles simulated: 2500  inst.: 1009856 (ipc=403.9) sim_rate=336618 (inst/sec) elapsed = 0:0:00:03 / Tue Apr 16 16:54:35 2019
GPGPU-Sim PTX: 1100000 instructions simulated : ctaid=(6,3,0) tid=(15,3,0)
GPGPU-Sim PTX: 1200000 instructions simulated : ctaid=(1,9,0) tid=(15,7,0)
GPGPU-Sim PTX: 1300000 instructions simulated : ctaid=(2,7,0) tid=(15,5,0)
GPGPU-Sim uArch: cycles simulated: 3000  inst.: 1284672 (ipc=428.2) sim_rate=321168 (inst/sec) elapsed = 0:0:00:04 / Tue Apr 16 16:54:36 2019
GPGPU-Sim PTX: 1400000 instructions simulated : ctaid=(7,0,0) tid=(15,3,0)
GPGPU-Sim PTX: 1500000 instructions simulated : ctaid=(4,1,0) tid=(15,5,0)
GPGPU-Sim PTX: 1600000 instructions simulated : ctaid=(1,9,0) tid=(15,7,0)
GPGPU-Sim PTX: 1700000 instructions simulated : ctaid=(5,10,0) tid=(15,5,0)
GPGPU-Sim PTX: 1800000 instructions simulated : ctaid=(7,3,0) tid=(15,1,0)
GPGPU-Sim uArch: cycles simulated: 4000  inst.: 1868288 (ipc=467.1) sim_rate=373657 (inst/sec) elapsed = 0:0:00:05 / Tue Apr 16 16:54:37 2019
GPGPU-Sim PTX: 1900000 instructions simulated : ctaid=(7,6,0) tid=(15,1,0)
GPGPU-Sim PTX: 2000000 instructions simulated : ctaid=(6,6,0) tid=(15,1,0)
GPGPU-Sim PTX: 2100000 instructions simulated : ctaid=(6,3,0) tid=(15,3,0)
GPGPU-Sim uArch: cycles simulated: 4500  inst.: 2159648 (ipc=479.9) sim_rate=359941 (inst/sec) elapsed = 0:0:00:06 / Tue Apr 16 16:54:38 2019
GPGPU-Sim PTX: 2200000 instructions simulated : ctaid=(1,9,0) tid=(15,1,0)
GPGPU-Sim PTX: 2300000 instructions simulated : ctaid=(3,7,0) tid=(15,5,0)
GPGPU-Sim PTX: 2400000 instructions simulated : ctaid=(2,2,0) tid=(15,3,0)
GPGPU-Sim PTX: 2500000 instructions simulated : ctaid=(2,5,0) tid=(15,5,0)
GPGPU-Sim PTX: 2600000 instructions simulated : ctaid=(3,3,0) tid=(15,1,0)
GPGPU-Sim PTX: 2700000 instructions simulated : ctaid=(5,8,0) tid=(15,3,0)
GPGPU-Sim uArch: cycles simulated: 5500  inst.: 2714912 (ipc=493.6) sim_rate=387844 (inst/sec) elapsed = 0:0:00:07 / Tue Apr 16 16:54:39 2019
GPGPU-Sim PTX: 2800000 instructions simulated : ctaid=(2,12,0) tid=(15,1,0)
GPGPU-Sim PTX: 2900000 instructions simulated : ctaid=(7,11,0) tid=(15,5,0)
GPGPU-Sim PTX: 3000000 instructions simulated : ctaid=(6,3,0) tid=(15,1,0)
GPGPU-Sim uArch: cycles simulated: 6000  inst.: 2996000 (ipc=499.3) sim_rate=374500 (inst/sec) elapsed = 0:0:00:08 / Tue Apr 16 16:54:40 2019
GPGPU-Sim PTX: 3100000 instructions simulated : ctaid=(5,6,0) tid=(15,5,0)
GPGPU-Sim PTX: 3200000 instructions simulated : ctaid=(7,6,0) tid=(15,5,0)
GPGPU-Sim PTX: 3300000 instructions simulated : ctaid=(1,8,0) tid=(15,1,0)
GPGPU-Sim PTX: 3400000 instructions simulated : ctaid=(5,0,0) tid=(15,7,0)
GPGPU-Sim PTX: 3500000 instructions simulated : ctaid=(4,2,0) tid=(15,1,0)
GPGPU-Sim uArch: cycles simulated: 7000  inst.: 3553152 (ipc=507.6) sim_rate=394794 (inst/sec) elapsed = 0:0:00:09 / Tue Apr 16 16:54:41 2019
GPGPU-Sim PTX: 3600000 instructions simulated : ctaid=(0,5,0) tid=(15,7,0)
GPGPU-Sim PTX: 3700000 instructions simulated : ctaid=(4,11,0) tid=(15,1,0)
GPGPU-Sim PTX: 3800000 instructions simulated : ctaid=(6,1,0) tid=(15,1,0)
GPGPU-Sim uArch: cycles simulated: 7500  inst.: 3860736 (ipc=514.8) sim_rate=386073 (inst/sec) elapsed = 0:0:00:10 / Tue Apr 16 16:54:42 2019
GPGPU-Sim PTX: 3900000 instructions simulated : ctaid=(5,10,0) tid=(15,3,0)
GPGPU-Sim PTX: 4000000 instructions simulated : ctaid=(3,8,0) tid=(15,5,0)
GPGPU-Sim PTX: 4100000 instructions simulated : ctaid=(0,9,0) tid=(15,1,0)
GPGPU-Sim PTX: 4200000 instructions simulated : ctaid=(6,5,0) tid=(15,1,0)
GPGPU-Sim PTX: 4300000 instructions simulated : ctaid=(3,0,0) tid=(15,5,0)
GPGPU-Sim PTX: 4400000 instructions simulated : ctaid=(7,7,0) tid=(15,7,0)
GPGPU-Sim uArch: cycles simulated: 8500  inst.: 4439296 (ipc=522.3) sim_rate=403572 (inst/sec) elapsed = 0:0:00:11 / Tue Apr 16 16:54:43 2019
GPGPU-Sim PTX: 4500000 instructions simulated : ctaid=(6,9,0) tid=(15,5,0)
GPGPU-Sim PTX: 4600000 instructions simulated : ctaid=(7,3,0) tid=(15,7,0)
GPGPU-Sim PTX: 4700000 instructions simulated : ctaid=(1,0,0) tid=(15,1,0)
GPGPU-Sim uArch: cycles simulated: 9000  inst.: 4705632 (ipc=522.8) sim_rate=392136 (inst/sec) elapsed = 0:0:00:12 / Tue Apr 16 16:54:44 2019
GPGPU-Sim PTX: 4800000 instructions simulated : ctaid=(5,8,0) tid=(15,5,0)
GPGPU-Sim PTX: 4900000 instructions simulated : ctaid=(7,3,0) tid=(15,5,0)
GPGPU-Sim PTX: 5000000 instructions simulated : ctaid=(3,0,0) tid=(15,3,0)
GPGPU-Sim PTX: 5100000 instructions simulated : ctaid=(7,12,0) tid=(15,1,0)
GPGPU-Sim PTX: 5200000 instructions simulated : ctaid=(1,8,0) tid=(15,5,0)
GPGPU-Sim PTX: 5300000 instructions simulated : ctaid=(0,7,0) tid=(15,5,0)
GPGPU-Sim uArch: cycles simulated: 10000  inst.: 5276160 (ipc=527.6) sim_rate=405858 (inst/sec) elapsed = 0:0:00:13 / Tue Apr 16 16:54:45 2019
GPGPU-Sim PTX: 5400000 instructions simulated : ctaid=(7,11,0) tid=(15,1,0)
GPGPU-Sim PTX: 5500000 instructions simulated : ctaid=(6,0,0) tid=(15,5,0)
GPGPU-Sim uArch: cycles simulated: 10500  inst.: 5572512 (ipc=530.7) sim_rate=398036 (inst/sec) elapsed = 0:0:00:14 / Tue Apr 16 16:54:46 2019
GPGPU-Sim PTX: 5600000 instructions simulated : ctaid=(4,4,0) tid=(15,7,0)
GPGPU-Sim PTX: 5700000 instructions simulated : ctaid=(7,7,0) tid=(15,1,0)
GPGPU-Sim PTX: 5800000 instructions simulated : ctaid=(3,0,0) tid=(15,3,0)
GPGPU-Sim PTX: 5900000 instructions simulated : ctaid=(5,7,0) tid=(15,1,0)
GPGPU-Sim PTX: 6000000 instructions simulated : ctaid=(2,12,0) tid=(15,3,0)
GPGPU-Sim PTX: 6100000 instructions simulated : ctaid=(7,6,0) tid=(15,5,0)
GPGPU-Sim uArch: cycles simulated: 11500  inst.: 6143200 (ipc=534.2) sim_rate=409546 (inst/sec) elapsed = 0:0:00:15 / Tue Apr 16 16:54:47 2019
GPGPU-Sim PTX: 6200000 instructions simulated : ctaid=(2,2,0) tid=(15,3,0)
GPGPU-Sim PTX: 6300000 instructions simulated : ctaid=(1,5,0) tid=(15,5,0)
GPGPU-Sim PTX: 6400000 instructions simulated : ctaid=(2,2,0) tid=(15,1,0)
GPGPU-Sim uArch: cycles simulated: 12000  inst.: 6425632 (ipc=535.5) sim_rate=401602 (inst/sec) elapsed = 0:0:00:16 / Tue Apr 16 16:54:48 2019
GPGPU-Sim PTX: 6500000 instructions simulated : ctaid=(2,1,0) tid=(15,1,0)
GPGPU-Sim PTX: 6600000 instructions simulated : ctaid=(5,1,0) tid=(15,7,0)
GPGPU-Sim PTX: 6700000 instructions simulated : ctaid=(7,12,0) tid=(15,3,0)
GPGPU-Sim uArch: cycles simulated: 12500  inst.: 6713184 (ipc=537.1) sim_rate=394893 (inst/sec) elapsed = 0:0:00:17 / Tue Apr 16 16:54:49 2019
GPGPU-Sim PTX: 6800000 instructions simulated : ctaid=(4,0,0) tid=(15,7,0)
GPGPU-Sim PTX: 6900000 instructions simulated : ctaid=(4,8,0) tid=(15,5,0)
GPGPU-Sim PTX: 7000000 instructions simulated : ctaid=(5,3,0) tid=(15,7,0)
GPGPU-Sim PTX: 7100000 instructions simulated : ctaid=(5,0,0) tid=(15,5,0)
GPGPU-Sim PTX: 7200000 instructions simulated : ctaid=(3,2,0) tid=(15,5,0)
GPGPU-Sim PTX: 7300000 instructions simulated : ctaid=(3,10,0) tid=(15,3,0)
GPGPU-Sim uArch: cycles simulated: 13500  inst.: 7278944 (ipc=539.2) sim_rate=404385 (inst/sec) elapsed = 0:0:00:18 / Tue Apr 16 16:54:50 2019
GPGPU-Sim PTX: 7400000 instructions simulated : ctaid=(2,4,0) tid=(15,1,0)
GPGPU-Sim PTX: 7500000 instructions simulated : ctaid=(0,1,0) tid=(15,3,0)
GPGPU-Sim uArch: cycles simulated: 14000  inst.: 7558624 (ipc=539.9) sim_rate=397822 (inst/sec) elapsed = 0:0:00:19 / Tue Apr 16 16:54:51 2019
GPGPU-Sim PTX: 7600000 instructions simulated : ctaid=(0,3,0) tid=(15,5,0)
GPGPU-Sim PTX: 7700000 instructions simulated : ctaid=(5,10,0) tid=(15,7,0)
GPGPU-Sim PTX: 7800000 instructions simulated : ctaid=(2,6,0) tid=(15,1,0)
GPGPU-Sim PTX: 7900000 instructions simulated : ctaid=(7,10,0) tid=(15,1,0)
GPGPU-Sim PTX: 8000000 instructions simulated : ctaid=(3,6,0) tid=(15,7,0)
GPGPU-Sim PTX: 8100000 instructions simulated : ctaid=(0,4,0) tid=(15,1,0)
GPGPU-Sim uArch: cycles simulated: 15000  inst.: 8114240 (ipc=540.9) sim_rate=405712 (inst/sec) elapsed = 0:0:00:20 / Tue Apr 16 16:54:52 2019
GPGPU-Sim PTX: 8200000 instructions simulated : ctaid=(1,10,0) tid=(15,1,0)
GPGPU-Sim PTX: 8300000 instructions simulated : ctaid=(2,10,0) tid=(15,3,0)
GPGPU-Sim PTX: 8400000 instructions simulated : ctaid=(6,2,0) tid=(15,5,0)
GPGPU-Sim uArch: cycles simulated: 15500  inst.: 8412704 (ipc=542.8) sim_rate=400604 (inst/sec) elapsed = 0:0:00:21 / Tue Apr 16 16:54:53 2019
GPGPU-Sim PTX: 8500000 instructions simulated : ctaid=(0,8,0) tid=(15,7,0)
GPGPU-Sim PTX: 8600000 instructions simulated : ctaid=(7,5,0) tid=(15,5,0)
GPGPU-Sim PTX: 8700000 instructions simulated : ctaid=(1,7,0) tid=(15,5,0)
GPGPU-Sim PTX: 8800000 instructions simulated : ctaid=(6,3,0) tid=(15,3,0)
GPGPU-Sim PTX: 8900000 instructions simulated : ctaid=(7,7,0) tid=(15,7,0)
GPGPU-Sim PTX: 9000000 instructions simulated : ctaid=(4,8,0) tid=(15,3,0)
GPGPU-Sim uArch: cycles simulated: 16500  inst.: 8991424 (ipc=544.9) sim_rate=408701 (inst/sec) elapsed = 0:0:00:22 / Tue Apr 16 16:54:54 2019
GPGPU-Sim PTX: 9100000 instructions simulated : ctaid=(2,3,0) tid=(15,7,0)
GPGPU-Sim PTX: 9200000 instructions simulated : ctaid=(6,9,0) tid=(15,5,0)
GPGPU-Sim PTX: 9300000 instructions simulated : ctaid=(1,3,0) tid=(15,1,0)
GPGPU-Sim PTX: 9400000 instructions simulated : ctaid=(1,10,0) tid=(15,1,0)
GPGPU-Sim PTX: 9500000 instructions simulated : ctaid=(4,3,0) tid=(15,1,0)
GPGPU-Sim uArch: cycles simulated: 17500  inst.: 9558656 (ipc=546.2) sim_rate=415593 (inst/sec) elapsed = 0:0:00:23 / Tue Apr 16 16:54:55 2019
GPGPU-Sim PTX: 9600000 instructions simulated : ctaid=(4,10,0) tid=(15,1,0)
GPGPU-Sim PTX: 9700000 instructions simulated : ctaid=(4,9,0) tid=(15,1,0)
GPGPU-Sim PTX: 9800000 instructions simulated : ctaid=(6,5,0) tid=(15,3,0)
GPGPU-Sim uArch: cycles simulated: 18000  inst.: 9852128 (ipc=547.3) sim_rate=410505 (inst/sec) elapsed = 0:0:00:24 / Tue Apr 16 16:54:56 2019
GPGPU-Sim PTX: 9900000 instructions simulated : ctaid=(4,8,0) tid=(15,1,0)
GPGPU-Sim PTX: 10000000 instructions simulated : ctaid=(7,5,0) tid=(15,5,0)
GPGPU-Sim PTX: 10100000 instructions simulated : ctaid=(4,4,0) tid=(15,1,0)
GPGPU-Sim PTX: 10200000 instructions simulated : ctaid=(1,10,0) tid=(15,3,0)
GPGPU-Sim PTX: 10300000 instructions simulated : ctaid=(7,4,0) tid=(15,1,0)
GPGPU-Sim PTX: 10400000 instructions simulated : ctaid=(6,0,0) tid=(15,1,0)
GPGPU-Sim uArch: cycles simulated: 19000  inst.: 10402784 (ipc=547.5) sim_rate=416111 (inst/sec) elapsed = 0:0:00:25 / Tue Apr 16 16:54:57 2019
GPGPU-Sim PTX: 10500000 instructions simulated : ctaid=(7,2,0) tid=(15,1,0)
GPGPU-Sim PTX: 10600000 instructions simulated : ctaid=(5,1,0) tid=(15,1,0)
GPGPU-Sim PTX: 10700000 instructions simulated : ctaid=(3,10,0) tid=(15,1,0)
GPGPU-Sim uArch: cycles simulated: 19500  inst.: 10697472 (ipc=548.6) sim_rate=411441 (inst/sec) elapsed = 0:0:00:26 / Tue Apr 16 16:54:58 2019
GPGPU-Sim PTX: 10800000 instructions simulated : ctaid=(3,3,0) tid=(15,3,0)
GPGPU-Sim PTX: 10900000 instructions simulated : ctaid=(0,0,0) tid=(15,7,0)
GPGPU-Sim PTX: 11000000 instructions simulated : ctaid=(6,0,0) tid=(15,5,0)
GPGPU-Sim PTX: 11100000 instructions simulated : ctaid=(2,6,0) tid=(15,5,0)
GPGPU-Sim PTX: 11200000 instructions simulated : ctaid=(1,6,0) tid=(15,1,0)
GPGPU-Sim uArch: cycles simulated: 20500  inst.: 11253568 (ipc=549.0) sim_rate=416798 (inst/sec) elapsed = 0:0:00:27 / Tue Apr 16 16:54:59 2019
GPGPU-Sim PTX: 11300000 instructions simulated : ctaid=(5,0,0) tid=(15,1,0)
GPGPU-Sim PTX: 11400000 instructions simulated : ctaid=(2,3,0) tid=(15,5,0)
GPGPU-Sim PTX: 11500000 instructions simulated : ctaid=(7,0,0) tid=(15,7,0)
GPGPU-Sim uArch: cycles simulated: 21000  inst.: 11554656 (ipc=550.2) sim_rate=412666 (inst/sec) elapsed = 0:0:00:28 / Tue Apr 16 16:55:00 2019
GPGPU-Sim PTX: 11600000 instructions simulated : ctaid=(5,0,0) tid=(15,1,0)
GPGPU-Sim PTX: 11700000 instructions simulated : ctaid=(4,14,0) tid=(15,1,0)
GPGPU-Sim PTX: 11800000 instructions simulated : ctaid=(0,0,0) tid=(15,5,0)
GPGPU-Sim PTX: 11900000 instructions simulated : ctaid=(1,7,0) tid=(15,5,0)
GPGPU-Sim PTX: 12000000 instructions simulated : ctaid=(7,3,0) tid=(15,1,0)
GPGPU-Sim PTX: 12100000 instructions simulated : ctaid=(5,12,0) tid=(15,1,0)
GPGPU-Sim uArch: cycles simulated: 22000  inst.: 12125440 (ipc=551.2) sim_rate=418118 (inst/sec) elapsed = 0:0:00:29 / Tue Apr 16 16:55:01 2019
GPGPU-Sim PTX: 12200000 instructions simulated : ctaid=(3,2,0) tid=(15,5,0)
GPGPU-Sim PTX: 12300000 instructions simulated : ctaid=(4,9,0) tid=(15,3,0)
GPGPU-Sim PTX: 12400000 instructions simulated : ctaid=(1,5,0) tid=(15,1,0)
GPGPU-Sim PTX: 12500000 instructions simulated : ctaid=(5,0,0) tid=(15,5,0)
GPGPU-Sim PTX: 12600000 instructions simulated : ctaid=(1,1,0) tid=(15,1,0)
GPGPU-Sim PTX: 12700000 instructions simulated : ctaid=(7,11,0) tid=(15,1,0)
GPGPU-Sim uArch: cycles simulated: 23000  inst.: 12680096 (ipc=551.3) sim_rate=422669 (inst/sec) elapsed = 0:0:00:30 / Tue Apr 16 16:55:02 2019
GPGPU-Sim PTX: 12800000 instructions simulated : ctaid=(6,8,0) tid=(15,3,0)
GPGPU-Sim PTX: 12900000 instructions simulated : ctaid=(6,12,0) tid=(15,5,0)
GPGPU-Sim uArch: cycles simulated: 23500  inst.: 12969600 (ipc=551.9) sim_rate=418374 (inst/sec) elapsed = 0:0:00:31 / Tue Apr 16 16:55:03 2019
GPGPU-Sim PTX: 13000000 instructions simulated : ctaid=(6,1,0) tid=(15,3,0)
GPGPU-Sim PTX: 13100000 instructions simulated : ctaid=(4,7,0) tid=(15,7,0)
GPGPU-Sim PTX: 13200000 instructions simulated : ctaid=(7,11,0) tid=(15,1,0)
GPGPU-Sim PTX: 13300000 instructions simulated : ctaid=(6,2,0) tid=(15,1,0)
GPGPU-Sim PTX: 13400000 instructions simulated : ctaid=(2,0,0) tid=(15,1,0)
GPGPU-Sim PTX: 13500000 instructions simulated : ctaid=(0,10,0) tid=(15,1,0)
GPGPU-Sim uArch: cycles simulated: 24500  inst.: 13539520 (ipc=552.6) sim_rate=423110 (inst/sec) elapsed = 0:0:00:32 / Tue Apr 16 16:55:04 2019
GPGPU-Sim PTX: 13600000 instructions simulated : ctaid=(6,11,0) tid=(15,1,0)
GPGPU-Sim PTX: 13700000 instructions simulated : ctaid=(7,2,0) tid=(15,5,0)
GPGPU-Sim PTX: 13800000 instructions simulated : ctaid=(4,4,0) tid=(15,3,0)
GPGPU-Sim uArch: cycles simulated: 25000  inst.: 13832160 (ipc=553.3) sim_rate=419156 (inst/sec) elapsed = 0:0:00:33 / Tue Apr 16 16:55:05 2019
GPGPU-Sim PTX: 13900000 instructions simulated : ctaid=(5,6,0) tid=(15,1,0)
GPGPU-Sim PTX: 14000000 instructions simulated : ctaid=(1,7,0) tid=(15,5,0)
GPGPU-Sim PTX: 14100000 instructions simulated : ctaid=(6,9,0) tid=(15,1,0)
GPGPU-Sim PTX: 14200000 instructions simulated : ctaid=(1,0,0) tid=(15,1,0)
GPGPU-Sim PTX: 14300000 instructions simulated : ctaid=(3,2,0) tid=(15,7,0)
GPGPU-Sim PTX: 14400000 instructions simulated : ctaid=(7,12,0) tid=(15,3,0)
GPGPU-Sim uArch: cycles simulated: 26000  inst.: 14411136 (ipc=554.3) sim_rate=423856 (inst/sec) elapsed = 0:0:00:34 / Tue Apr 16 16:55:06 2019
GPGPU-Sim PTX: 14500000 instructions simulated : ctaid=(5,2,0) tid=(15,7,0)
GPGPU-Sim PTX: 14600000 instructions simulated : ctaid=(6,5,0) tid=(15,3,0)
GPGPU-Sim PTX: 14700000 instructions simulated : ctaid=(2,3,0) tid=(15,7,0)
GPGPU-Sim PTX: 14800000 instructions simulated : ctaid=(6,11,0) tid=(15,1,0)
GPGPU-Sim PTX: 14900000 instructions simulated : ctaid=(2,7,0) tid=(15,5,0)
GPGPU-Sim uArch: cycles simulated: 27000  inst.: 14966432 (ipc=554.3) sim_rate=427612 (inst/sec) elapsed = 0:0:00:35 / Tue Apr 16 16:55:07 2019
GPGPU-Sim PTX: 15000000 instructions simulated : ctaid=(0,10,0) tid=(15,1,0)
GPGPU-Sim PTX: 15100000 instructions simulated : ctaid=(6,6,0) tid=(15,1,0)
GPGPU-Sim PTX: 15200000 instructions simulated : ctaid=(2,8,0) tid=(15,5,0)
GPGPU-Sim PTX: 15300000 instructions simulated : ctaid=(0,4,0) tid=(15,5,0)
GPGPU-Sim PTX: 15400000 instructions simulated : ctaid=(5,9,0) tid=(15,1,0)
GPGPU-Sim PTX: 15500000 instructions simulated : ctaid=(6,4,0) tid=(15,3,0)
GPGPU-Sim uArch: cycles simulated: 28000  inst.: 15543104 (ipc=555.1) sim_rate=431752 (inst/sec) elapsed = 0:0:00:36 / Tue Apr 16 16:55:08 2019
GPGPU-Sim PTX: 15600000 instructions simulated : ctaid=(4,6,0) tid=(15,7,0)
GPGPU-Sim PTX: 15700000 instructions simulated : ctaid=(1,10,0) tid=(15,1,0)
GPGPU-Sim PTX: 15800000 instructions simulated : ctaid=(6,10,0) tid=(15,1,0)
GPGPU-Sim uArch: cycles simulated: 28500  inst.: 15808992 (ipc=554.7) sim_rate=427270 (inst/sec) elapsed = 0:0:00:37 / Tue Apr 16 16:55:09 2019
GPGPU-Sim PTX: 15900000 instructions simulated : ctaid=(2,11,0) tid=(15,3,0)
GPGPU-Sim PTX: 16000000 instructions simulated : ctaid=(6,11,0) tid=(15,3,0)
GPGPU-Sim PTX: 16100000 instructions simulated : ctaid=(4,5,0) tid=(15,5,0)
GPGPU-Sim PTX: 16200000 instructions simulated : ctaid=(6,1,0) tid=(15,1,0)
GPGPU-Sim PTX: 16300000 instructions simulated : ctaid=(4,0,0) tid=(15,3,0)
GPGPU-Sim PTX: 16400000 instructions simulated : ctaid=(0,10,0) tid=(15,5,0)
GPGPU-Sim uArch: cycles simulated: 29500  inst.: 16399104 (ipc=555.9) sim_rate=431555 (inst/sec) elapsed = 0:0:00:38 / Tue Apr 16 16:55:10 2019
GPGPU-Sim PTX: 16500000 instructions simulated : ctaid=(4,8,0) tid=(15,1,0)
GPGPU-Sim PTX: 16600000 instructions simulated : ctaid=(1,0,0) tid=(15,7,0)
GPGPU-Sim PTX: 16700000 instructions simulated : ctaid=(4,10,0) tid=(15,7,0)
GPGPU-Sim PTX: 16800000 instructions simulated : ctaid=(6,3,0) tid=(15,1,0)
GPGPU-Sim PTX: 16900000 instructions simulated : ctaid=(4,2,0) tid=(15,7,0)
GPGPU-Sim uArch: cycles simulated: 30500  inst.: 16960608 (ipc=556.1) sim_rate=434887 (inst/sec) elapsed = 0:0:00:39 / Tue Apr 16 16:55:11 2019
GPGPU-Sim PTX: 17000000 instructions simulated : ctaid=(6,4,0) tid=(15,5,0)
GPGPU-Sim PTX: 17100000 instructions simulated : ctaid=(3,1,0) tid=(15,5,0)
GPGPU-Sim PTX: 17200000 instructions simulated : ctaid=(5,1,0) tid=(15,1,0)
GPGPU-Sim PTX: 17300000 instructions simulated : ctaid=(2,8,0) tid=(15,7,0)
GPGPU-Sim PTX: 17400000 instructions simulated : ctaid=(3,10,0) tid=(15,3,0)
GPGPU-Sim PTX: 17500000 instructions simulated : ctaid=(1,2,0) tid=(15,3,0)
GPGPU-Sim uArch: cycles simulated: 31500  inst.: 17531008 (ipc=556.5) sim_rate=438275 (inst/sec) elapsed = 0:0:00:40 / Tue Apr 16 16:55:12 2019
GPGPU-Sim PTX: 17600000 instructions simulated : ctaid=(0,5,0) tid=(15,3,0)
GPGPU-Sim PTX: 17700000 instructions simulated : ctaid=(2,1,0) tid=(15,1,0)
GPGPU-Sim PTX: 17800000 instructions simulated : ctaid=(1,6,0) tid=(15,1,0)
GPGPU-Sim uArch: cycles simulated: 32000  inst.: 17824864 (ipc=557.0) sim_rate=434752 (inst/sec) elapsed = 0:0:00:41 / Tue Apr 16 16:55:13 2019
GPGPU-Sim PTX: 17900000 instructions simulated : ctaid=(6,2,0) tid=(15,1,0)
GPGPU-Sim PTX: 18000000 instructions simulated : ctaid=(4,5,0) tid=(15,7,0)
GPGPU-Sim PTX: 18100000 instructions simulated : ctaid=(4,1,0) tid=(15,7,0)
GPGPU-Sim PTX: 18200000 instructions simulated : ctaid=(7,6,0) tid=(15,5,0)
GPGPU-Sim PTX: 18300000 instructions simulated : ctaid=(4,4,0) tid=(15,3,0)
GPGPU-Sim PTX: 18400000 instructions simulated : ctaid=(3,10,0) tid=(15,5,0)
GPGPU-Sim uArch: cycles simulated: 33000  inst.: 18397600 (ipc=557.5) sim_rate=438038 (inst/sec) elapsed = 0:0:00:42 / Tue Apr 16 16:55:14 2019
GPGPU-Sim PTX: 18500000 instructions simulated : ctaid=(7,7,0) tid=(15,3,0)
GPGPU-Sim PTX: 18600000 instructions simulated : ctaid=(4,8,0) tid=(15,3,0)
GPGPU-Sim PTX: 18700000 instructions simulated : ctaid=(5,10,0) tid=(15,5,0)
GPGPU-Sim PTX: 18800000 instructions simulated : ctaid=(0,0,0) tid=(15,1,0)
GPGPU-Sim PTX: 18900000 instructions simulated : ctaid=(3,11,0) tid=(15,5,0)
GPGPU-Sim uArch: cycles simulated: 34000  inst.: 18973856 (ipc=558.1) sim_rate=441252 (inst/sec) elapsed = 0:0:00:43 / Tue Apr 16 16:55:15 2019
GPGPU-Sim PTX: 19000000 instructions simulated : ctaid=(2,9,0) tid=(15,1,0)
GPGPU-Sim PTX: 19100000 instructions simulated : ctaid=(0,0,0) tid=(15,1,0)
GPGPU-Sim PTX: 19200000 instructions simulated : ctaid=(2,8,0) tid=(15,7,0)
GPGPU-Sim PTX: 19300000 instructions simulated : ctaid=(3,1,0) tid=(15,7,0)
GPGPU-Sim PTX: 19400000 instructions simulated : ctaid=(2,4,0) tid=(15,5,0)
GPGPU-Sim PTX: 19500000 instructions simulated : ctaid=(0,10,0) tid=(15,5,0)
GPGPU-Sim uArch: cycles simulated: 35000  inst.: 19533088 (ipc=558.1) sim_rate=443933 (inst/sec) elapsed = 0:0:00:44 / Tue Apr 16 16:55:16 2019
GPGPU-Sim PTX: 19600000 instructions simulated : ctaid=(1,12,0) tid=(15,1,0)
GPGPU-Sim PTX: 19700000 instructions simulated : ctaid=(0,9,0) tid=(15,3,0)
GPGPU-Sim PTX: 19800000 instructions simulated : ctaid=(6,4,0) tid=(15,5,0)
GPGPU-Sim uArch: cycles simulated: 35500  inst.: 19811008 (ipc=558.1) sim_rate=440244 (inst/sec) elapsed = 0:0:00:45 / Tue Apr 16 16:55:17 2019
GPGPU-Sim PTX: 19900000 instructions simulated : ctaid=(7,5,0) tid=(15,3,0)
GPGPU-Sim PTX: 20000000 instructions simulated : ctaid=(1,2,0) tid=(15,1,0)
GPGPU-Sim PTX: 20100000 instructions simulated : ctaid=(6,7,0) tid=(15,5,0)
GPGPU-Sim PTX: 20200000 instructions simulated : ctaid=(1,5,0) tid=(15,1,0)
GPGPU-Sim PTX: 20300000 instructions simulated : ctaid=(0,2,0) tid=(15,5,0)
GPGPU-Sim PTX: 20400000 instructions simulated : ctaid=(0,7,0) tid=(15,5,0)
GPGPU-Sim uArch: cycles simulated: 36500  inst.: 20369376 (ipc=558.1) sim_rate=442812 (inst/sec) elapsed = 0:0:00:46 / Tue Apr 16 16:55:18 2019
GPGPU-Sim PTX: 20500000 instructions simulated : ctaid=(2,5,0) tid=(15,7,0)
GPGPU-Sim PTX: 20600000 instructions simulated : ctaid=(2,6,0) tid=(15,5,0)
GPGPU-Sim PTX: 20700000 instructions simulated : ctaid=(0,6,0) tid=(15,5,0)
GPGPU-Sim PTX: 20800000 instructions simulated : ctaid=(2,1,0) tid=(15,5,0)
GPGPU-Sim PTX: 20900000 instructions simulated : ctaid=(1,11,0) tid=(15,1,0)
GPGPU-Sim uArch: cycles simulated: 37500  inst.: 20958528 (ipc=558.9) sim_rate=445926 (inst/sec) elapsed = 0:0:00:47 / Tue Apr 16 16:55:19 2019
GPGPU-Sim PTX: 21000000 instructions simulated : ctaid=(0,4,0) tid=(15,3,0)
GPGPU-Sim PTX: 21100000 instructions simulated : ctaid=(0,11,0) tid=(15,1,0)
GPGPU-Sim PTX: 21200000 instructions simulated : ctaid=(3,7,0) tid=(15,1,0)
GPGPU-Sim uArch: cycles simulated: 38000  inst.: 21253568 (ipc=559.3) sim_rate=442782 (inst/sec) elapsed = 0:0:00:48 / Tue Apr 16 16:55:20 2019
GPGPU-Sim PTX: 21300000 instructions simulated : ctaid=(5,2,0) tid=(15,3,0)
GPGPU-Sim PTX: 21400000 instructions simulated : ctaid=(6,2,0) tid=(15,1,0)
GPGPU-Sim PTX: 21500000 instructions simulated : ctaid=(3,1,0) tid=(15,1,0)
GPGPU-Sim PTX: 21600000 instructions simulated : ctaid=(2,1,0) tid=(15,1,0)
GPGPU-Sim PTX: 21700000 instructions simulated : ctaid=(3,1,0) tid=(15,1,0)
GPGPU-Sim PTX: 21800000 instructions simulated : ctaid=(2,6,0) tid=(15,7,0)
GPGPU-Sim uArch: cycles simulated: 39000  inst.: 21810912 (ipc=559.3) sim_rate=445120 (inst/sec) elapsed = 0:0:00:49 / Tue Apr 16 16:55:21 2019
GPGPU-Sim PTX: 21900000 instructions simulated : ctaid=(5,8,0) tid=(15,1,0)
GPGPU-Sim PTX: 22000000 instructions simulated : ctaid=(4,13,0) tid=(15,5,0)
GPGPU-Sim PTX: 22100000 instructions simulated : ctaid=(2,10,0) tid=(15,3,0)
GPGPU-Sim PTX: 22200000 instructions simulated : ctaid=(6,3,0) tid=(15,1,0)
GPGPU-Sim PTX: 22300000 instructions simulated : ctaid=(3,0,0) tid=(15,3,0)
GPGPU-Sim PTX: 22400000 instructions simulated : ctaid=(0,6,0) tid=(15,3,0)
GPGPU-Sim uArch: cycles simulated: 40000  inst.: 22383648 (ipc=559.6) sim_rate=447672 (inst/sec) elapsed = 0:0:00:50 / Tue Apr 16 16:55:22 2019
GPGPU-Sim PTX: 22500000 instructions simulated : ctaid=(7,0,0) tid=(15,1,0)
GPGPU-Sim PTX: 22600000 instructions simulated : ctaid=(7,2,0) tid=(15,3,0)
GPGPU-Sim uArch: cycles simulated: 40500  inst.: 22654112 (ipc=559.4) sim_rate=444198 (inst/sec) elapsed = 0:0:00:51 / Tue Apr 16 16:55:23 2019
GPGPU-Sim PTX: 22700000 instructions simulated : ctaid=(2,7,0) tid=(15,7,0)
GPGPU-Sim PTX: 22800000 instructions simulated : ctaid=(5,8,0) tid=(15,5,0)
GPGPU-Sim PTX: 22900000 instructions simulated : ctaid=(5,3,0) tid=(15,1,0)
GPGPU-Sim PTX: 23000000 instructions simulated : ctaid=(4,10,0) tid=(15,1,0)
GPGPU-Sim PTX: 23100000 instructions simulated : ctaid=(1,1,0) tid=(15,3,0)
GPGPU-Sim PTX: 23200000 instructions simulated : ctaid=(3,6,0) tid=(15,7,0)
GPGPU-Sim uArch: cycles simulated: 41500  inst.: 23235680 (ipc=559.9) sim_rate=446840 (inst/sec) elapsed = 0:0:00:52 / Tue Apr 16 16:55:24 2019
GPGPU-Sim PTX: 23300000 instructions simulated : ctaid=(1,7,0) tid=(15,1,0)
GPGPU-Sim PTX: 23400000 instructions simulated : ctaid=(6,9,0) tid=(15,1,0)
GPGPU-Sim PTX: 23500000 instructions simulated : ctaid=(1,8,0) tid=(15,5,0)
GPGPU-Sim PTX: 23600000 instructions simulated : ctaid=(6,7,0) tid=(15,3,0)
GPGPU-Sim PTX: 23700000 instructions simulated : ctaid=(2,0,0) tid=(15,1,0)
GPGPU-Sim PTX: 23800000 instructions simulated : ctaid=(1,7,0) tid=(15,3,0)
GPGPU-Sim uArch: cycles simulated: 42500  inst.: 23811648 (ipc=560.3) sim_rate=449276 (inst/sec) elapsed = 0:0:00:53 / Tue Apr 16 16:55:25 2019
GPGPU-Sim PTX: 23900000 instructions simulated : ctaid=(2,1,0) tid=(15,7,0)
GPGPU-Sim PTX: 24000000 instructions simulated : ctaid=(4,6,0) tid=(15,5,0)
GPGPU-Sim PTX: 24100000 instructions simulated : ctaid=(1,1,0) tid=(15,7,0)
GPGPU-Sim uArch: cycles simulated: 43000  inst.: 24093280 (ipc=560.3) sim_rate=446171 (inst/sec) elapsed = 0:0:00:54 / Tue Apr 16 16:55:26 2019
GPGPU-Sim PTX: 24200000 instructions simulated : ctaid=(6,1,0) tid=(15,5,0)
GPGPU-Sim PTX: 24300000 instructions simulated : ctaid=(0,11,0) tid=(15,3,0)
GPGPU-Sim PTX: 24400000 instructions simulated : ctaid=(4,5,0) tid=(15,5,0)
GPGPU-Sim PTX: 24500000 instructions simulated : ctaid=(5,4,0) tid=(15,5,0)
GPGPU-Sim PTX: 24600000 instructions simulated : ctaid=(1,11,0) tid=(15,7,0)
GPGPU-Sim uArch: cycles simulated: 44000  inst.: 24662400 (ipc=560.5) sim_rate=448407 (inst/sec) elapsed = 0:0:00:55 / Tue Apr 16 16:55:27 2019
GPGPU-Sim PTX: 24700000 instructions simulated : ctaid=(1,8,0) tid=(15,5,0)
GPGPU-Sim PTX: 24800000 instructions simulated : ctaid=(1,0,0) tid=(15,5,0)
GPGPU-Sim PTX: 24900000 instructions simulated : ctaid=(3,1,0) tid=(15,7,0)
GPGPU-Sim PTX: 25000000 instructions simulated : ctaid=(1,7,0) tid=(15,1,0)
GPGPU-Sim PTX: 25100000 instructions simulated : ctaid=(3,2,0) tid=(15,3,0)
GPGPU-Sim PTX: 25200000 instructions simulated : ctaid=(1,12,0) tid=(15,7,0)
GPGPU-Sim uArch: cycles simulated: 45000  inst.: 25225888 (ipc=560.6) sim_rate=450462 (inst/sec) elapsed = 0:0:00:56 / Tue Apr 16 16:55:28 2019
GPGPU-Sim PTX: 25300000 instructions simulated : ctaid=(0,11,0) tid=(15,1,0)
GPGPU-Sim PTX: 25400000 instructions simulated : ctaid=(4,6,0) tid=(15,5,0)
GPGPU-Sim PTX: 25500000 instructions simulated : ctaid=(5,0,0) tid=(15,3,0)
GPGPU-Sim PTX: 25600000 instructions simulated : ctaid=(6,2,0) tid=(15,5,0)
GPGPU-Sim PTX: 25700000 instructions simulated : ctaid=(5,5,0) tid=(15,7,0)
GPGPU-Sim PTX: 25800000 instructions simulated : ctaid=(1,2,0) tid=(15,7,0)
GPGPU-Sim uArch: cycles simulated: 46000  inst.: 25791296 (ipc=560.7) sim_rate=452478 (inst/sec) elapsed = 0:0:00:57 / Tue Apr 16 16:55:29 2019
GPGPU-Sim PTX: 25900000 instructions simulated : ctaid=(7,5,0) tid=(15,7,0)
GPGPU-Sim PTX: 26000000 instructions simulated : ctaid=(3,3,0) tid=(15,1,0)
GPGPU-Sim PTX: 26100000 instructions simulated : ctaid=(6,8,0) tid=(15,5,0)
GPGPU-Sim uArch: cycles simulated: 46500  inst.: 26089312 (ipc=561.1) sim_rate=449815 (inst/sec) elapsed = 0:0:00:58 / Tue Apr 16 16:55:30 2019
GPGPU-Sim PTX: 26200000 instructions simulated : ctaid=(6,7,0) tid=(15,1,0)
GPGPU-Sim PTX: 26300000 instructions simulated : ctaid=(1,4,0) tid=(15,3,0)
GPGPU-Sim PTX: 26400000 instructions simulated : ctaid=(4,7,0) tid=(15,1,0)
GPGPU-Sim PTX: 26500000 instructions simulated : ctaid=(0,12,0) tid=(15,1,0)
GPGPU-Sim PTX: 26600000 instructions simulated : ctaid=(7,11,0) tid=(15,1,0)
GPGPU-Sim uArch: cycles simulated: 47500  inst.: 26669216 (ipc=561.5) sim_rate=452020 (inst/sec) elapsed = 0:0:00:59 / Tue Apr 16 16:55:31 2019
GPGPU-Sim PTX: 26700000 instructions simulated : ctaid=(1,2,0) tid=(15,7,0)
GPGPU-Sim PTX: 26800000 instructions simulated : ctaid=(2,6,0) tid=(15,1,0)
GPGPU-Sim PTX: 26900000 instructions simulated : ctaid=(7,3,0) tid=(15,1,0)
GPGPU-Sim PTX: 27000000 instructions simulated : ctaid=(4,4,0) tid=(15,3,0)
GPGPU-Sim PTX: 27100000 instructions simulated : ctaid=(0,11,0) tid=(15,5,0)
GPGPU-Sim PTX: 27200000 instructions simulated : ctaid=(1,1,0) tid=(15,5,0)
GPGPU-Sim uArch: cycles simulated: 48500  inst.: 27225664 (ipc=561.4) sim_rate=453761 (inst/sec) elapsed = 0:0:01:00 / Tue Apr 16 16:55:32 2019
GPGPU-Sim PTX: 27300000 instructions simulated : ctaid=(7,2,0) tid=(15,7,0)
GPGPU-Sim PTX: 27400000 instructions simulated : ctaid=(7,11,0) tid=(15,7,0)
GPGPU-Sim PTX: 27500000 instructions simulated : ctaid=(4,1,0) tid=(15,1,0)
GPGPU-Sim PTX: 27600000 instructions simulated : ctaid=(1,8,0) tid=(15,7,0)
GPGPU-Sim PTX: 27700000 instructions simulated : ctaid=(1,3,0) tid=(15,3,0)
GPGPU-Sim PTX: 27800000 instructions simulated : ctaid=(0,3,0) tid=(15,5,0)
GPGPU-Sim uArch: cycles simulated: 49500  inst.: 27795360 (ipc=561.5) sim_rate=455661 (inst/sec) elapsed = 0:0:01:01 / Tue Apr 16 16:55:33 2019
GPGPU-Sim PTX: 27900000 instructions simulated : ctaid=(7,1,0) tid=(15,3,0)
GPGPU-Sim PTX: 28000000 instructions simulated : ctaid=(7,1,0) tid=(15,7,0)
GPGPU-Sim PTX: 28100000 instructions simulated : ctaid=(2,6,0) tid=(15,7,0)
GPGPU-Sim uArch: cycles simulated: 50000  inst.: 28063008 (ipc=561.3) sim_rate=452629 (inst/sec) elapsed = 0:0:01:02 / Tue Apr 16 16:55:34 2019
GPGPU-Sim PTX: 28200000 instructions simulated : ctaid=(5,6,0) tid=(15,5,0)
GPGPU-Sim PTX: 28300000 instructions simulated : ctaid=(4,0,0) tid=(15,3,0)
GPGPU-Sim PTX: 28400000 instructions simulated : ctaid=(5,12,0) tid=(15,1,0)
GPGPU-Sim PTX: 28500000 instructions simulated : ctaid=(7,0,0) tid=(15,5,0)
GPGPU-Sim PTX: 28600000 instructions simulated : ctaid=(4,1,0) tid=(15,3,0)
GPGPU-Sim uArch: cycles simulated: 51000  inst.: 28650624 (ipc=561.8) sim_rate=454771 (inst/sec) elapsed = 0:0:01:03 / Tue Apr 16 16:55:35 2019
GPGPU-Sim PTX: 28700000 instructions simulated : ctaid=(2,1,0) tid=(15,3,0)
GPGPU-Sim PTX: 28800000 instructions simulated : ctaid=(7,10,0) tid=(15,5,0)
GPGPU-Sim PTX: 28900000 instructions simulated : ctaid=(0,4,0) tid=(15,1,0)
GPGPU-Sim PTX: 29000000 instructions simulated : ctaid=(0,10,0) tid=(15,3,0)
GPGPU-Sim PTX: 29100000 instructions simulated : ctaid=(0,5,0) tid=(15,1,0)
GPGPU-Sim PTX: 29200000 instructions simulated : ctaid=(6,0,0) tid=(15,5,0)
GPGPU-Sim uArch: cycles simulated: 52000  inst.: 29213888 (ipc=561.8) sim_rate=456467 (inst/sec) elapsed = 0:0:01:04 / Tue Apr 16 16:55:36 2019
GPGPU-Sim PTX: 29300000 instructions simulated : ctaid=(5,2,0) tid=(15,1,0)
GPGPU-Sim PTX: 29400000 instructions simulated : ctaid=(4,9,0) tid=(15,5,0)
GPGPU-Sim PTX: 29500000 instructions simulated : ctaid=(1,2,0) tid=(15,3,0)
GPGPU-Sim uArch: cycles simulated: 52500  inst.: 29504000 (ipc=562.0) sim_rate=453907 (inst/sec) elapsed = 0:0:01:05 / Tue Apr 16 16:55:37 2019
GPGPU-Sim PTX: 29600000 instructions simulated : ctaid=(0,6,0) tid=(15,5,0)
GPGPU-Sim PTX: 29700000 instructions simulated : ctaid=(7,6,0) tid=(15,3,0)
GPGPU-Sim PTX: 29800000 instructions simulated : ctaid=(0,12,0) tid=(15,5,0)
GPGPU-Sim PTX: 29900000 instructions simulated : ctaid=(4,4,0) tid=(15,3,0)
GPGPU-Sim PTX: 30000000 instructions simulated : ctaid=(3,7,0) tid=(15,1,0)
GPGPU-Sim PTX: 30100000 instructions simulated : ctaid=(0,8,0) tid=(15,1,0)
GPGPU-Sim uArch: cycles simulated: 53500  inst.: 30080288 (ipc=562.2) sim_rate=455761 (inst/sec) elapsed = 0:0:01:06 / Tue Apr 16 16:55:38 2019
GPGPU-Sim PTX: 30200000 instructions simulated : ctaid=(7,3,0) tid=(15,1,0)
GPGPU-Sim PTX: 30300000 instructions simulated : ctaid=(6,11,0) tid=(15,1,0)
GPGPU-Sim PTX: 30400000 instructions simulated : ctaid=(7,0,0) tid=(15,3,0)
GPGPU-Sim PTX: 30500000 instructions simulated : ctaid=(7,7,0) tid=(15,5,0)
GPGPU-Sim PTX: 30600000 instructions simulated : ctaid=(3,6,0) tid=(15,5,0)
GPGPU-Sim uArch: cycles simulated: 54500  inst.: 30651520 (ipc=562.4) sim_rate=457485 (inst/sec) elapsed = 0:0:01:07 / Tue Apr 16 16:55:39 2019
GPGPU-Sim PTX: 30700000 instructions simulated : ctaid=(5,8,0) tid=(15,1,0)
GPGPU-Sim PTX: 30800000 instructions simulated : ctaid=(0,0,0) tid=(15,3,0)
GPGPU-Sim PTX: 30900000 instructions simulated : ctaid=(1,6,0) tid=(15,1,0)
GPGPU-Sim uArch: cycles simulated: 55000  inst.: 30933056 (ipc=562.4) sim_rate=454897 (inst/sec) elapsed = 0:0:01:08 / Tue Apr 16 16:55:40 2019
GPGPU-Sim PTX: 31000000 instructions simulated : ctaid=(6,1,0) tid=(15,3,0)
GPGPU-Sim PTX: 31100000 instructions simulated : ctaid=(4,7,0) tid=(15,5,0)
GPGPU-Sim PTX: 31200000 instructions simulated : ctaid=(4,13,0) tid=(15,5,0)
GPGPU-Sim PTX: 31300000 instructions simulated : ctaid=(4,3,0) tid=(15,3,0)
GPGPU-Sim PTX: 31400000 instructions simulated : ctaid=(1,0,0) tid=(15,5,0)
GPGPU-Sim PTX: 31500000 instructions simulated : ctaid=(0,7,0) tid=(15,7,0)
GPGPU-Sim uArch: cycles simulated: 56000  inst.: 31501824 (ipc=562.5) sim_rate=456548 (inst/sec) elapsed = 0:0:01:09 / Tue Apr 16 16:55:41 2019
GPGPU-Sim PTX: 31600000 instructions simulated : ctaid=(4,10,0) tid=(15,5,0)
GPGPU-Sim PTX: 31700000 instructions simulated : ctaid=(3,9,0) tid=(15,5,0)
GPGPU-Sim PTX: 31800000 instructions simulated : ctaid=(2,7,0) tid=(15,1,0)
GPGPU-Sim PTX: 31900000 instructions simulated : ctaid=(5,5,0) tid=(15,5,0)
GPGPU-Sim PTX: 32000000 instructions simulated : ctaid=(5,10,0) tid=(15,1,0)
GPGPU-Sim uArch: cycles simulated: 57000  inst.: 32071776 (ipc=562.7) sim_rate=458168 (inst/sec) elapsed = 0:0:01:10 / Tue Apr 16 16:55:42 2019
GPGPU-Sim PTX: 32100000 instructions simulated : ctaid=(6,1,0) tid=(15,3,0)
GPGPU-Sim PTX: 32200000 instructions simulated : ctaid=(0,7,0) tid=(15,1,0)
GPGPU-Sim PTX: 32300000 instructions simulated : ctaid=(5,3,0) tid=(15,7,0)
GPGPU-Sim PTX: 32400000 instructions simulated : ctaid=(2,8,0) tid=(15,3,0)
GPGPU-Sim PTX: 32500000 instructions simulated : ctaid=(7,4,0) tid=(15,5,0)
GPGPU-Sim PTX: 32600000 instructions simulated : ctaid=(5,1,0) tid=(15,1,0)
GPGPU-Sim uArch: cycles simulated: 58000  inst.: 32630112 (ipc=562.6) sim_rate=459579 (inst/sec) elapsed = 0:0:01:11 / Tue Apr 16 16:55:43 2019
GPGPU-Sim PTX: 32700000 instructions simulated : ctaid=(3,10,0) tid=(15,1,0)
GPGPU-Sim PTX: 32800000 instructions simulated : ctaid=(7,12,0) tid=(15,1,0)
GPGPU-Sim PTX: 32900000 instructions simulated : ctaid=(6,0,0) tid=(15,5,0)
GPGPU-Sim uArch: cycles simulated: 58500  inst.: 32918720 (ipc=562.7) sim_rate=457204 (inst/sec) elapsed = 0:0:01:12 / Tue Apr 16 16:55:44 2019
GPGPU-Sim PTX: 33000000 instructions simulated : ctaid=(1,10,0) tid=(15,5,0)
GPGPU-Sim PTX: 33100000 instructions simulated : ctaid=(3,1,0) tid=(15,1,0)
GPGPU-Sim PTX: 33200000 instructions simulated : ctaid=(4,1,0) tid=(15,7,0)
GPGPU-Sim PTX: 33300000 instructions simulated : ctaid=(5,6,0) tid=(15,7,0)
GPGPU-Sim PTX: 33400000 instructions simulated : ctaid=(5,0,0) tid=(15,7,0)
GPGPU-Sim PTX: 33500000 instructions simulated : ctaid=(2,8,0) tid=(15,3,0)
GPGPU-Sim uArch: cycles simulated: 59500  inst.: 33500096 (ipc=563.0) sim_rate=458905 (inst/sec) elapsed = 0:0:01:13 / Tue Apr 16 16:55:45 2019
GPGPU-Sim PTX: 33600000 instructions simulated : ctaid=(0,3,0) tid=(15,3,0)
GPGPU-Sim PTX: 33700000 instructions simulated : ctaid=(1,10,0) tid=(15,5,0)
GPGPU-Sim PTX: 33800000 instructions simulated : ctaid=(7,10,0) tid=(15,1,0)
GPGPU-Sim PTX: 33900000 instructions simulated : ctaid=(1,8,0) tid=(15,3,0)
GPGPU-Sim PTX: 34000000 instructions simulated : ctaid=(4,0,0) tid=(15,5,0)
GPGPU-Sim uArch: cycles simulated: 60500  inst.: 34070752 (ipc=563.2) sim_rate=460415 (inst/sec) elapsed = 0:0:01:14 / Tue Apr 16 16:55:46 2019
GPGPU-Sim PTX: 34100000 instructions simulated : ctaid=(7,10,0) tid=(15,5,0)
GPGPU-Sim PTX: 34200000 instructions simulated : ctaid=(5,1,0) tid=(15,7,0)
GPGPU-Sim PTX: 34300000 instructions simulated : ctaid=(2,1,0) tid=(15,7,0)
GPGPU-Sim uArch: cycles simulated: 61000  inst.: 34363552 (ipc=563.3) sim_rate=458180 (inst/sec) elapsed = 0:0:01:15 / Tue Apr 16 16:55:47 2019
GPGPU-Sim PTX: 34400000 instructions simulated : ctaid=(7,10,0) tid=(15,7,0)
GPGPU-Sim PTX: 34500000 instructions simulated : ctaid=(1,0,0) tid=(15,5,0)
GPGPU-Sim PTX: 34600000 instructions simulated : ctaid=(2,8,0) tid=(15,1,0)
GPGPU-Sim PTX: 34700000 instructions simulated : ctaid=(7,1,0) tid=(15,7,0)
GPGPU-Sim PTX: 34800000 instructions simulated : ctaid=(7,12,0) tid=(15,1,0)
GPGPU-Sim PTX: 34900000 instructions simulated : ctaid=(5,2,0) tid=(15,1,0)
GPGPU-Sim uArch: cycles simulated: 62000  inst.: 34920192 (ipc=563.2) sim_rate=459476 (inst/sec) elapsed = 0:0:01:16 / Tue Apr 16 16:55:48 2019
GPGPU-Sim PTX: 35000000 instructions simulated : ctaid=(2,7,0) tid=(15,1,0)
GPGPU-Sim PTX: 35100000 instructions simulated : ctaid=(3,0,0) tid=(15,3,0)
GPGPU-Sim PTX: 35200000 instructions simulated : ctaid=(6,0,0) tid=(15,1,0)
GPGPU-Sim PTX: 35300000 instructions simulated : ctaid=(5,0,0) tid=(15,3,0)
GPGPU-Sim PTX: 35400000 instructions simulated : ctaid=(6,2,0) tid=(15,3,0)
GPGPU-Sim PTX: 35500000 instructions simulated : ctaid=(0,0,0) tid=(15,1,0)
GPGPU-Sim uArch: cycles simulated: 63000  inst.: 35494112 (ipc=563.4) sim_rate=460962 (inst/sec) elapsed = 0:0:01:17 / Tue Apr 16 16:55:49 2019
GPGPU-Sim PTX: 35600000 instructions simulated : ctaid=(2,2,0) tid=(15,7,0)
GPGPU-Sim PTX: 35700000 instructions simulated : ctaid=(7,7,0) tid=(15,5,0)
GPGPU-Sim PTX: 35800000 instructions simulated : ctaid=(4,10,0) tid=(15,3,0)
GPGPU-Sim PTX: 35900000 instructions simulated : ctaid=(4,4,0) tid=(15,7,0)
GPGPU-Sim PTX: 36000000 instructions simulated : ctaid=(1,2,0) tid=(15,1,0)
GPGPU-Sim uArch: cycles simulated: 64000  inst.: 36069248 (ipc=563.6) sim_rate=462426 (inst/sec) elapsed = 0:0:01:18 / Tue Apr 16 16:55:50 2019
GPGPU-Sim PTX: 36100000 instructions simulated : ctaid=(0,9,0) tid=(15,7,0)
GPGPU-Sim PTX: 36200000 instructions simulated : ctaid=(3,9,0) tid=(15,1,0)
GPGPU-Sim PTX: 36300000 instructions simulated : ctaid=(4,5,0) tid=(15,7,0)
GPGPU-Sim uArch: cycles simulated: 64500  inst.: 36348960 (ipc=563.5) sim_rate=460113 (inst/sec) elapsed = 0:0:01:19 / Tue Apr 16 16:55:51 2019
GPGPU-Sim PTX: 36400000 instructions simulated : ctaid=(5,14,0) tid=(15,1,0)
GPGPU-Sim PTX: 36500000 instructions simulated : ctaid=(3,5,0) tid=(15,5,0)
GPGPU-Sim PTX: 36600000 instructions simulated : ctaid=(1,13,0) tid=(15,5,0)
GPGPU-Sim PTX: 36700000 instructions simulated : ctaid=(0,11,0) tid=(15,1,0)
GPGPU-Sim PTX: 36800000 instructions simulated : ctaid=(1,3,0) tid=(15,3,0)
GPGPU-Sim PTX: 36900000 instructions simulated : ctaid=(7,1,0) tid=(15,5,0)
GPGPU-Sim uArch: cycles simulated: 65500  inst.: 36914432 (ipc=563.6) sim_rate=461430 (inst/sec) elapsed = 0:0:01:20 / Tue Apr 16 16:55:52 2019
GPGPU-Sim PTX: 37000000 instructions simulated : ctaid=(4,7,0) tid=(15,7,0)
GPGPU-Sim PTX: 37100000 instructions simulated : ctaid=(3,3,0) tid=(15,5,0)
GPGPU-Sim PTX: 37200000 instructions simulated : ctaid=(5,0,0) tid=(15,1,0)
GPGPU-Sim uArch: cycles simulated: 66000  inst.: 37201280 (ipc=563.7) sim_rate=459275 (inst/sec) elapsed = 0:0:01:21 / Tue Apr 16 16:55:53 2019
GPGPU-Sim PTX: 37300000 instructions simulated : ctaid=(2,10,0) tid=(15,1,0)
GPGPU-Sim PTX: 37400000 instructions simulated : ctaid=(2,4,0) tid=(15,3,0)
GPGPU-Sim PTX: 37500000 instructions simulated : ctaid=(5,1,0) tid=(15,3,0)
GPGPU-Sim PTX: 37600000 instructions simulated : ctaid=(6,0,0) tid=(15,1,0)
GPGPU-Sim PTX: 37700000 instructions simulated : ctaid=(6,0,0) tid=(15,7,0)
GPGPU-Sim PTX: 37800000 instructions simulated : ctaid=(0,1,0) tid=(15,3,0)
GPGPU-Sim uArch: cycles simulated: 67000  inst.: 37778144 (ipc=563.9) sim_rate=460709 (inst/sec) elapsed = 0:0:01:22 / Tue Apr 16 16:55:54 2019
GPGPU-Sim PTX: 37900000 instructions simulated : ctaid=(2,3,0) tid=(15,5,0)
GPGPU-Sim PTX: 38000000 instructions simulated : ctaid=(1,10,0) tid=(15,1,0)
GPGPU-Sim PTX: 38100000 instructions simulated : ctaid=(1,11,0) tid=(15,3,0)
GPGPU-Sim PTX: 38200000 instructions simulated : ctaid=(6,12,0) tid=(15,1,0)
GPGPU-Sim PTX: 38300000 instructions simulated : ctaid=(6,6,0) tid=(15,5,0)
GPGPU-Sim uArch: cycles simulated: 68000  inst.: 38345280 (ipc=563.9) sim_rate=461991 (inst/sec) elapsed = 0:0:01:23 / Tue Apr 16 16:55:55 2019
GPGPU-Sim PTX: 38400000 instructions simulated : ctaid=(2,3,0) tid=(15,1,0)
GPGPU-Sim PTX: 38500000 instructions simulated : ctaid=(5,4,0) tid=(15,3,0)
GPGPU-Sim PTX: 38600000 instructions simulated : ctaid=(5,3,0) tid=(15,5,0)
GPGPU-Sim uArch: cycles simulated: 68500  inst.: 38627616 (ipc=563.9) sim_rate=459852 (inst/sec) elapsed = 0:0:01:24 / Tue Apr 16 16:55:56 2019
GPGPU-Sim PTX: 38700000 instructions simulated : ctaid=(5,1,0) tid=(15,3,0)
GPGPU-Sim PTX: 38800000 instructions simulated : ctaid=(5,0,0) tid=(15,3,0)
GPGPU-Sim PTX: 38900000 instructions simulated : ctaid=(3,7,0) tid=(15,3,0)
GPGPU-Sim PTX: 39000000 instructions simulated : ctaid=(0,1,0) tid=(15,7,0)
GPGPU-Sim PTX: 39100000 instructions simulated : ctaid=(7,8,0) tid=(15,3,0)
GPGPU-Sim uArch: cycles simulated: 69500  inst.: 39160864 (ipc=563.5) sim_rate=460716 (inst/sec) elapsed = 0:0:01:25 / Tue Apr 16 16:55:57 2019
GPGPU-Sim PTX: 39200000 instructions simulated : ctaid=(2,12,0) tid=(15,5,0)
GPGPU-Sim PTX: 39300000 instructions simulated : ctaid=(6,9,0) tid=(15,1,0)
GPGPU-Sim PTX: 39400000 instructions simulated : ctaid=(5,6,0) tid=(15,3,0)
GPGPU-Sim PTX: 39500000 instructions simulated : ctaid=(5,4,0) tid=(15,3,0)
GPGPU-Sim PTX: 39600000 instructions simulated : ctaid=(1,8,0) tid=(15,7,0)
GPGPU-Sim PTX: 39700000 instructions simulated : ctaid=(7,0,0) tid=(15,7,0)
GPGPU-Sim uArch: cycles simulated: 70500  inst.: 39676128 (ipc=562.8) sim_rate=461350 (inst/sec) elapsed = 0:0:01:26 / Tue Apr 16 16:55:58 2019
GPGPU-Sim PTX: 39800000 instructions simulated : ctaid=(5,9,0) tid=(15,3,0)
GPGPU-Sim uArch: Shader 0 finished CTA #0 (70768,0), 7 CTAs running
GPGPU-Sim uArch: core:  0, cta: 0 initialized @(70769,0)
GPGPU-Sim PTX: 39900000 instructions simulated : ctaid=(4,8,0) tid=(15,3,0)
GPGPU-Sim uArch: Shader 14 finished CTA #0 (70939,0), 7 CTAs running
GPGPU-Sim uArch: core: 14, cta: 0 initialized @(70940,0)
GPGPU-Sim uArch: Shader 11 finished CTA #0 (70978,0), 7 CTAs running
GPGPU-Sim uArch: core: 11, cta: 0 initialized @(70979,0)
GPGPU-Sim PTX: 40000000 instructions simulated : ctaid=(6,3,0) tid=(15,3,0)
GPGPU-Sim uArch: cycles simulated: 71000  inst.: 39969792 (ipc=563.0) sim_rate=459422 (inst/sec) elapsed = 0:0:01:27 / Tue Apr 16 16:55:59 2019
GPGPU-Sim PTX: 40100000 instructions simulated : ctaid=(5,7,0) tid=(15,3,0)
GPGPU-Sim uArch: Shader 6 finished CTA #0 (71303,0), 7 CTAs running
GPGPU-Sim uArch: core:  6, cta: 0 initialized @(71304,0)
GPGPU-Sim PTX: 40200000 instructions simulated : ctaid=(3,2,0) tid=(15,3,0)
GPGPU-Sim uArch: Shader 3 finished CTA #0 (71480,0), 7 CTAs running
GPGPU-Sim uArch: core:  3, cta: 0 initialized @(71481,0)
GPGPU-Sim uArch: Shader 9 finished CTA #0 (71486,0), 7 CTAs running
GPGPU-Sim uArch: core:  9, cta: 0 initialized @(71487,0)
GPGPU-Sim uArch: cycles simulated: 71500  inst.: 40263744 (ipc=563.1) sim_rate=457542 (inst/sec) elapsed = 0:0:01:28 / Tue Apr 16 16:56:00 2019
GPGPU-Sim PTX: 40300000 instructions simulated : ctaid=(6,7,0) tid=(15,1,0)
GPGPU-Sim uArch: Shader 4 finished CTA #0 (71554,0), 7 CTAs running
GPGPU-Sim uArch: core:  4, cta: 0 initialized @(71555,0)
GPGPU-Sim uArch: Shader 12 finished CTA #0 (71590,0), 7 CTAs running
GPGPU-Sim uArch: core: 12, cta: 0 initialized @(71591,0)
GPGPU-Sim uArch: Shader 5 finished CTA #0 (71598,0), 7 CTAs running
GPGPU-Sim uArch: core:  5, cta: 0 initialized @(71599,0)
GPGPU-Sim PTX: 40400000 instructions simulated : ctaid=(7,0,0) tid=(15,7,0)
GPGPU-Sim PTX: 40500000 instructions simulated : ctaid=(5,7,0) tid=(15,1,0)
GPGPU-Sim uArch: Shader 7 finished CTA #0 (71849,0), 7 CTAs running
GPGPU-Sim uArch: core:  7, cta: 0 initialized @(71850,0)
GPGPU-Sim uArch: Shader 13 finished CTA #0 (71977,0), 7 CTAs running
GPGPU-Sim uArch: core: 13, cta: 0 initialized @(71978,0)
GPGPU-Sim PTX: 40600000 instructions simulated : ctaid=(7,10,0) tid=(15,5,0)
GPGPU-Sim PTX: 40700000 instructions simulated : ctaid=(0,14,0) tid=(15,1,0)
GPGPU-Sim PTX: 40800000 instructions simulated : ctaid=(5,14,0) tid=(15,1,0)
GPGPU-Sim uArch: Shader 2 finished CTA #0 (72365,0), 7 CTAs running
GPGPU-Sim uArch: core:  2, cta: 0 initialized @(72366,0)
GPGPU-Sim uArch: Shader 8 finished CTA #0 (72487,0), 7 CTAs running
GPGPU-Sim uArch: core:  8, cta: 0 initialized @(72488,0)
GPGPU-Sim uArch: cycles simulated: 72500  inst.: 40858400 (ipc=563.6) sim_rate=459083 (inst/sec) elapsed = 0:0:01:29 / Tue Apr 16 16:56:01 2019
GPGPU-Sim PTX: 40900000 instructions simulated : ctaid=(6,15,0) tid=(15,5,0)
GPGPU-Sim uArch: Shader 1 finished CTA #0 (72637,0), 7 CTAs running
GPGPU-Sim uArch: core:  1, cta: 0 initialized @(72638,0)
GPGPU-Sim PTX: 41000000 instructions simulated : ctaid=(5,7,0) tid=(15,5,0)
GPGPU-Sim uArch: Shader 10 finished CTA #0 (72693,0), 7 CTAs running
GPGPU-Sim uArch: core: 10, cta: 0 initialized @(72694,0)
GPGPU-Sim PTX: 41100000 instructions simulated : ctaid=(3,10,0) tid=(15,7,0)
GPGPU-Sim uArch: cycles simulated: 73000  inst.: 41153184 (ipc=563.7) sim_rate=457257 (inst/sec) elapsed = 0:0:01:30 / Tue Apr 16 16:56:02 2019
GPGPU-Sim PTX: 41200000 instructions simulated : ctaid=(0,5,0) tid=(15,7,0)
GPGPU-Sim PTX: 41300000 instructions simulated : ctaid=(5,9,0) tid=(15,1,0)
GPGPU-Sim PTX: 41400000 instructions simulated : ctaid=(7,4,0) tid=(15,3,0)
GPGPU-Sim PTX: 41500000 instructions simulated : ctaid=(3,5,0) tid=(15,7,0)
GPGPU-Sim PTX: 41600000 instructions simulated : ctaid=(5,3,0) tid=(15,7,0)
GPGPU-Sim PTX: 41700000 instructions simulated : ctaid=(6,5,0) tid=(15,7,0)
GPGPU-Sim uArch: cycles simulated: 74000  inst.: 41726688 (ipc=563.9) sim_rate=458535 (inst/sec) elapsed = 0:0:01:31 / Tue Apr 16 16:56:03 2019
GPGPU-Sim PTX: 41800000 instructions simulated : ctaid=(4,2,0) tid=(15,7,0)
GPGPU-Sim PTX: 41900000 instructions simulated : ctaid=(7,9,0) tid=(15,3,0)
GPGPU-Sim PTX: 42000000 instructions simulated : ctaid=(2,10,0) tid=(15,5,0)
GPGPU-Sim PTX: 42100000 instructions simulated : ctaid=(4,10,0) tid=(15,1,0)
GPGPU-Sim PTX: 42200000 instructions simulated : ctaid=(6,13,0) tid=(15,1,0)
GPGPU-Sim PTX: 42300000 instructions simulated : ctaid=(7,13,0) tid=(15,1,0)
GPGPU-Sim uArch: cycles simulated: 75000  inst.: 42294048 (ipc=563.9) sim_rate=459717 (inst/sec) elapsed = 0:0:01:32 / Tue Apr 16 16:56:04 2019
GPGPU-Sim PTX: 42400000 instructions simulated : ctaid=(0,10,0) tid=(15,5,0)
GPGPU-Sim PTX: 42500000 instructions simulated : ctaid=(3,9,0) tid=(15,3,0)
GPGPU-Sim PTX: 42600000 instructions simulated : ctaid=(5,9,0) tid=(15,3,0)
GPGPU-Sim uArch: cycles simulated: 75500  inst.: 42580320 (ipc=564.0) sim_rate=457852 (inst/sec) elapsed = 0:0:01:33 / Tue Apr 16 16:56:05 2019
GPGPU-Sim PTX: 42700000 instructions simulated : ctaid=(5,11,0) tid=(15,3,0)
GPGPU-Sim PTX: 42800000 instructions simulated : ctaid=(2,11,0) tid=(15,1,0)
GPGPU-Sim PTX: 42900000 instructions simulated : ctaid=(2,5,0) tid=(15,7,0)
GPGPU-Sim PTX: 43000000 instructions simulated : ctaid=(7,8,0) tid=(15,7,0)
GPGPU-Sim PTX: 43100000 instructions simulated : ctaid=(2,12,0) tid=(15,5,0)
GPGPU-Sim uArch: cycles simulated: 76500  inst.: 43153472 (ipc=564.1) sim_rate=459079 (inst/sec) elapsed = 0:0:01:34 / Tue Apr 16 16:56:06 2019
GPGPU-Sim PTX: 43200000 instructions simulated : ctaid=(5,15,0) tid=(15,1,0)
GPGPU-Sim PTX: 43300000 instructions simulated : ctaid=(0,7,0) tid=(15,7,0)
GPGPU-Sim PTX: 43400000 instructions simulated : ctaid=(6,16,0) tid=(15,1,0)
GPGPU-Sim PTX: 43500000 instructions simulated : ctaid=(3,14,0) tid=(15,5,0)
GPGPU-Sim PTX: 43600000 instructions simulated : ctaid=(3,8,0) tid=(15,3,0)
GPGPU-Sim PTX: 43700000 instructions simulated : ctaid=(4,8,0) tid=(15,3,0)
GPGPU-Sim uArch: cycles simulated: 77500  inst.: 43726592 (ipc=564.2) sim_rate=460279 (inst/sec) elapsed = 0:0:01:35 / Tue Apr 16 16:56:07 2019
GPGPU-Sim PTX: 43800000 instructions simulated : ctaid=(2,11,0) tid=(15,3,0)
GPGPU-Sim PTX: 43900000 instructions simulated : ctaid=(6,4,0) tid=(15,3,0)
GPGPU-Sim PTX: 44000000 instructions simulated : ctaid=(5,15,0) tid=(15,5,0)
GPGPU-Sim PTX: 44100000 instructions simulated : ctaid=(3,9,0) tid=(15,3,0)
GPGPU-Sim PTX: 44200000 instructions simulated : ctaid=(2,10,0) tid=(15,3,0)
GPGPU-Sim PTX: 44300000 instructions simulated : ctaid=(3,9,0) tid=(15,1,0)
GPGPU-Sim uArch: cycles simulated: 78500  inst.: 44298048 (ipc=564.3) sim_rate=461438 (inst/sec) elapsed = 0:0:01:36 / Tue Apr 16 16:56:08 2019
GPGPU-Sim PTX: 44400000 instructions simulated : ctaid=(4,7,0) tid=(15,3,0)
GPGPU-Sim PTX: 44500000 instructions simulated : ctaid=(3,4,0) tid=(15,7,0)
GPGPU-Sim PTX: 44600000 instructions simulated : ctaid=(0,9,0) tid=(15,7,0)
GPGPU-Sim uArch: cycles simulated: 79000  inst.: 44583200 (ipc=564.3) sim_rate=459620 (inst/sec) elapsed = 0:0:01:37 / Tue Apr 16 16:56:09 2019
GPGPU-Sim PTX: 44700000 instructions simulated : ctaid=(1,8,0) tid=(15,3,0)
GPGPU-Sim PTX: 44800000 instructions simulated : ctaid=(7,7,0) tid=(15,3,0)
GPGPU-Sim uArch: Shader 6 finished CTA #1 (79404,0), 7 CTAs running
GPGPU-Sim uArch: core:  6, cta: 1 initialized @(79405,0)
GPGPU-Sim PTX: 44900000 instructions simulated : ctaid=(6,9,0) tid=(15,7,0)
GPGPU-Sim PTX: 45000000 instructions simulated : ctaid=(5,10,0) tid=(15,1,0)
GPGPU-Sim PTX: 45100000 instructions simulated : ctaid=(1,8,0) tid=(15,7,0)
GPGPU-Sim uArch: Shader 4 finished CTA #1 (79859,0), 7 CTAs running
GPGPU-Sim uArch: core:  4, cta: 1 initialized @(79860,0)
GPGPU-Sim uArch: cycles simulated: 80000  inst.: 45156736 (ipc=564.5) sim_rate=460783 (inst/sec) elapsed = 0:0:01:38 / Tue Apr 16 16:56:10 2019
GPGPU-Sim PTX: 45200000 instructions simulated : ctaid=(4,12,0) tid=(15,1,0)
GPGPU-Sim PTX: 45300000 instructions simulated : ctaid=(6,6,0) tid=(15,3,0)
GPGPU-Sim uArch: Shader 9 finished CTA #1 (80234,0), 7 CTAs running
GPGPU-Sim uArch: core:  9, cta: 1 initialized @(80235,0)
GPGPU-Sim uArch: Shader 0 finished CTA #1 (80265,0), 7 CTAs running
GPGPU-Sim uArch: core:  0, cta: 1 initialized @(80266,0)
GPGPU-Sim PTX: 45400000 instructions simulated : ctaid=(6,10,0) tid=(15,1,0)
GPGPU-Sim uArch: Shader 2 finished CTA #1 (80398,0), 7 CTAs running
GPGPU-Sim uArch: core:  2, cta: 1 initialized @(80399,0)
GPGPU-Sim uArch: Shader 8 finished CTA #1 (80407,0), 7 CTAs running
GPGPU-Sim uArch: core:  8, cta: 1 initialized @(80408,0)
GPGPU-Sim uArch: Shader 3 finished CTA #1 (80446,0), 7 CTAs running
GPGPU-Sim uArch: core:  3, cta: 1 initialized @(80447,0)
GPGPU-Sim PTX: 45500000 instructions simulated : ctaid=(2,13,0) tid=(15,1,0)
GPGPU-Sim uArch: Shader 7 finished CTA #1 (80598,0), 7 CTAs running
GPGPU-Sim uArch: core:  7, cta: 1 initialized @(80599,0)
GPGPU-Sim PTX: 45600000 instructions simulated : ctaid=(3,13,0) tid=(15,5,0)
GPGPU-Sim PTX: 45700000 instructions simulated : ctaid=(3,7,0) tid=(15,3,0)
GPGPU-Sim uArch: Shader 1 finished CTA #1 (80930,0), 7 CTAs running
GPGPU-Sim uArch: core:  1, cta: 1 initialized @(80931,0)
GPGPU-Sim uArch: cycles simulated: 81000  inst.: 45751520 (ipc=564.8) sim_rate=462136 (inst/sec) elapsed = 0:0:01:39 / Tue Apr 16 16:56:11 2019
[...]
gpgpu_stall_shd_mem[g_mem_st][wb_icnt_rc] = 0
gpgpu_stall_shd_mem[g_mem_st][wb_rsrv_fail] = 0
gpgpu_stall_shd_mem[l_mem_ld][mshr_rc] = 0
gpgpu_stall_shd_mem[l_mem_ld][icnt_rc] = 0
gpgpu_stall_shd_mem[l_mem_ld][wb_icnt_rc] = 0
gpgpu_stall_shd_mem[l_mem_ld][wb_rsrv_fail] = 0
gpgpu_stall_shd_mem[l_mem_st][mshr_rc] = 0
gpgpu_stall_shd_mem[l_mem_st][icnt_rc] = 0
gpgpu_stall_shd_mem[l_mem_ld][wb_icnt_rc] = 0
gpgpu_stall_shd_mem[l_mem_ld][wb_rsrv_fail] = 0
gpu_reg_bank_conflict_stalls = 0
Warp Occupancy Distribution:
Stall:1905607	W0_Idle:218747	W0_Scoreboard:826864	W1:0	W2:0	W3:0	W4:0	W5:0	W6:0	W7:0	W8:0	W9:0	W10:0	W11:0	W12:0	W13:0	W14:0	W15:0	W16:0	W17:0	W18:0	W19:0	W20:0	W21:0	W22:0	W23:0	W24:0	W25:0	W26:0	W27:0	W28:0	W29:0	W30:0	W31:0	W32:3938304
traffic_breakdown_coretomem[CONST_ACC_R] = 6120 {8:765,}
traffic_breakdown_coretomem[GLOBAL_ACC_R] = 32480 {8:4060,}
traffic_breakdown_coretomem[GLOBAL_ACC_W] = 294912 {72:4096,}
traffic_breakdown_coretomem[INST_ACC_R] = 600 {8:75,}
traffic_breakdown_memtocore[CONST_ACC_R] = 55080 {72:765,}
traffic_breakdown_memtocore[GLOBAL_ACC_R] = 552160 {136:4060,}
traffic_breakdown_memtocore[GLOBAL_ACC_W] = 32768 {8:4096,}
traffic_breakdown_memtocore[INST_ACC_R] = 10200 {136:75,}
maxmrqlatency = 133 
maxdqlatency = 0 
maxmflatency = 419 
averagemflatency = 181 
max_icnt2mem_latency = 71 
max_icnt2sh_latency = 241974 
mrq_lat_table:1912 	12 	14 	22 	24 	41 	49 	5 	0 	0 	0 	0 	0 	0 	0 	0 	0 	0 	0 	0 	0 	0 	0 	0 	0 	0 	0 	0 	0 	0 	0 	0 	
dq_lat_table:0 	0 	0 	0 	0 	0 	0 	0 	0 	0 	0 	0 	0 	0 	0 	0 	0 	0 	0 	0 	0 	0 	0 	0 	0 	0 	0 	0 	0 	0 	0 	0 	
mf_lat_table:0 	0 	0 	0 	0 	0 	0 	6739 	2182 	0 	0 	0 	0 	0 	0 	0 	0 	0 	0 	0 	0 	0 	0 	0 	0 	0 	0 	0 	0 	0 	0 	0 	
icnt2mem_lat_table:0 	0 	0 	7810 	1033 	151 	2 	0 	0 	0 	0 	0 	0 	0 	0 	0 	0 	0 	0 	0 	0 	0 	0 	0 	
icnt2sh_lat_table:0 	0 	0 	2344 	2282 	178 	21 	0 	0 	0 	0 	0 	0 	0 	0 	0 	1717 	2379 	0 	0 	0 	0 	0 	0 	
mf_lat_pw_table:0 	0 	0 	0 	0 	0 	0 	298 	19 	0 	0 	0 	0 	0 	0 	0 	0 	0 	0 	0 	0 	0 	0 	0 	0 	0 	0 	0 	0 	0 	0 	0 	
maximum concurrent accesses to same row:
dram[0]:         1         0         0         0         0         0         0         0         0         0         0         0         0         0         0         0 
dram[1]:         2         0         0         0         0         0         0         0         0         0         0         0         0         0         0         0 
dram[2]:         2         0         0         0         0         0         0         0         0         0         0         0         0         0         0         0 
dram[3]:         0         0         0         0         0         0         0         0         0         0         0         0         0         0         0         0 
dram[4]:         0         0         0         0         0         0         0         0         0         0         0         0         0         0         0         0 
dram[5]:         0         0         0         0         0         0         0         0         0         0         0         0         0         0         0         0 
maximum service time to same row:
dram[0]:     59875         0         0         0     69354     69369     69338     69332     71704     73379    108829    108734    151434    152369    184585    199226 
dram[1]:      2856         0         0         0     69335     69329     69346     69351     72140     72319    110653    109556    151738    157613    198574    199885 
dram[2]:     69029         0         0         0     69371     69357     69335     69341     73382     71706    108735    120087    152372    152801    199229    186422 
dram[3]:         0         0         0         0     69325     69331     69353     69347     72322     72141    109557    120481    157616    153040    199888    199999 
dram[4]:         0         0         0         0     69360     69367     69343     69337     72150     76259    108826    119238    151432    153872    184584    199696 
dram[5]:         0         0         0         0     69332     69326     69344     69355     72207     76212    110651    120451    151737    158719    198572    200365 
average row accesses per activate:
dram[0]:  1.250000       inf      -nan      -nan 10.000000 10.000000 32.000000 32.000000 32.000000 32.000000 32.000000 32.000000 32.000000 32.000000 32.000000 32.000000 
dram[1]:  2.500000       inf      -nan      -nan 10.000000 10.000000 32.000000 32.000000 32.000000 32.000000 32.000000 32.000000 32.000000 32.000000 32.000000 32.000000 
dram[2]:  3.000000       inf      -nan      -nan 10.000000 12.000000 32.000000 32.000000 32.000000 32.000000 32.000000 32.000000 32.000000 32.000000 32.000000 32.000000 
dram[3]:       inf       inf      -nan      -nan 10.000000 12.000000 32.000000 32.000000 32.000000 32.000000 32.000000 32.000000 32.000000 32.000000 32.000000 32.000000 
dram[4]:       inf       inf      -nan      -nan 10.000000 12.000000 32.000000 32.000000 32.000000 32.000000 32.000000 32.000000 32.000000 32.000000 32.000000 32.000000 
dram[5]:       inf       inf      -nan      -nan 10.000000 12.000000 32.000000 32.000000 32.000000 32.000000 32.000000 32.000000 32.000000 32.000000 32.000000 32.000000 
average row locality = 2079/79 = 26.316456
number of total memory accesses made:
dram[0]:         0         0         0         0         0         0         0         0         0         0         0         0         0         0         0         0 
dram[1]:         0         0         0         0         0         0         0         0         0         0         0         0         0         0         0         0 
dram[2]:         0         0         0         0         0         0         0         0         0         0         0         0         0         0         0         0 
dram[3]:         0         0         0         0         0         0         0         0         0         0         0         0         0         0         0         0 
dram[4]:         0         0         0         0         0         0         0         0         0         0         0         0         0         0         0         0 
dram[5]:         0         0         0         0         0         0         0         0         0         0         0         0         0         0         0         0 
total accesses: 0
min_bank_accesses = 0!
min_chip_accesses = 0!
number of total read accesses:
dram[0]:         5         2         0         0        10        10        32        32        32        32        32        32        32        32        32        32 
dram[1]:         5         2         0         0        10        10        32        32        32        32        32        32        32        32        32        32 
dram[2]:         3         2         0         0        10        12        32        32        32        32        32        32        32        32        32        32 
dram[3]:         2         2         0         0        10        12        32        32        32        32        32        32        32        32        32        32 
dram[4]:         2         2         0         0        10        12        32        32        32        32        32        32        32        32        32        32 
dram[5]:         2         2         0         0        10        12        32        32        32        32        32        32        32        32        32        32 
total reads: 2079
min_bank_accesses = 0!
chip skew: 347/346 = 1.00
number of total write accesses:
dram[0]:         0         0         0         0         0         0         0         0         0         0         0         0         0         0         0         0 
dram[1]:         0         0         0         0         0         0         0         0         0         0         0         0         0         0         0         0 
dram[2]:         0         0         0         0         0         0         0         0         0         0         0         0         0         0         0         0 
dram[3]:         0         0         0         0         0         0         0         0         0         0         0         0         0         0         0         0 
dram[4]:         0         0         0         0         0         0         0         0         0         0         0         0         0         0         0         0 
dram[5]:         0         0         0         0         0         0         0         0         0         0         0         0         0         0         0         0 
total reads: 0
min_bank_accesses = 0!
min_chip_accesses = 0!
average mf latency per bank:
dram[0]:       3120      5668    none      none         825       776       808       756       697       697       693       692       688       697       698       693
dram[1]:       3662      5759    none      none         794       840       787       785       697       694       693       693       687       693       693       698
dram[2]:       3889      5945    none      none         788       771       781       801       697       698       692       697       698       692       694       694
dram[3]:       5820      5902    none      none         733       819       723       834       688       697       692       693       688       693       698       698
dram[4]:       5747      6002    none      none         821       789       815       783       697       698       693       687       693       698       692       698
dram[5]:       5689      5736    none      none         769       793       775       755       697       692       697       698       693       693       693       697
maximum mf latency per bank:
dram[0]:        282       272         0         0       355       312       418       396       271       268       279       268       273       268       273       267
dram[1]:        409       269         0         0       317       306       371       390       268       276       273       268       273       268       273       268
dram[2]:        269       271         0         0       331       330       404       418       273       273       273       268       273       268       272       268
dram[3]:        276       269         0         0       304       347       328       400       269       273       273       268       273       270       273       269
dram[4]:        272       281         0         0       350       325       410       419       268       268       274       268       268       268       268       269
dram[5]:        270       271         0         0       356       306       366       389       268       268       268       267       268       269       269       268

Number of Memory Banks Accessed per Memory Operation per Warp (from 0):
0	0	0	0	0	0	0	0	0	0	0	0	0	0	0	0	0	0	0	0	0	0	0	0	0	0	0	0	0	0	0	0	0	0	0	0	0	0	0	0	0	0	0	0	0	0	0	0	0	0	0	0	0	0	0	0	0	0	0	0	0	0	0	0	0	0	0	0	0	0	0	0	0	0	0	0	0	0	0	0	0	0	0	0	0	0	0	0	0	0	0	0	0	0	0	0	
Average # of Memory Banks Accessed per Memory Operation per Warp=-nan

position of mrq chosen
0	0	0	0	0	0	0	0	0	0	0	0	0	0	0	0	

average position of mrq chosen = -nan
Memory Partition 0: 
Cache L2_bank_000:
MSHR contents

Cache L2_bank_001:
MSHR contents

In Dram Latency Queue (total = 0): 
DRAM[0]: 16 bks, busW=4 BL=8 CL=12, tRRD=2 tCCD=6, tRCD=12 tRAS=28 tRP=12 tRC=40
n_cmd=319406 n_nop=318692 n_act=17 n_pre=3 n_req=347 n_rd=694 n_write=0 bw_util=0.004346
n_activity=5171 dram_eff=0.2684
bk0: 10a 319299i bk1: 4a 319383i bk2: 0a 319406i bk3: 0a 319407i bk4: 20a 319337i bk5: 20a 319318i bk6: 64a 319151i bk7: 64a 319093i bk8: 64a 319263i bk9: 64a 319264i bk10: 64a 319264i bk11: 64a 319264i bk12: 64a 319262i bk13: 64a 319264i bk14: 64a 319264i bk15: 64a 319263i 
dram_util_bins: 0 0 0 0 0 0 0 0 0 0
dram_eff_bins: 0 0 0 0 0 0 0 0 0 0
mrqq: max=14 avg=0.00489033
Memory Partition 1: 
Cache L2_bank_002:
MSHR contents

Cache L2_bank_003:
MSHR contents

In Dram Latency Queue (total = 0): 
DRAM[1]: 16 bks, busW=4 BL=8 CL=12, tRRD=2 tCCD=6, tRCD=12 tRAS=28 tRP=12 tRC=40
n_cmd=319406 n_nop=318694 n_act=16 n_pre=2 n_req=347 n_rd=694 n_write=0 bw_util=0.004346
n_activity=5196 dram_eff=0.2671
bk0: 10a 319322i bk1: 4a 319382i bk2: 0a 319404i bk3: 0a 319407i bk4: 20a 319329i bk5: 20a 319327i bk6: 64a 319171i bk7: 64a 319116i bk8: 64a 319267i bk9: 64a 319264i bk10: 64a 319266i bk11: 64a 319265i bk12: 64a 319264i bk13: 64a 319263i bk14: 64a 319262i bk15: 64a 319261i 
dram_util_bins: 0 0 0 0 0 0 0 0 0 0
dram_eff_bins: 0 0 0 0 0 0 0 0 0 0
mrqq: max=13 avg=0.0041358
Memory Partition 2: 
Cache L2_bank_004:
MSHR contents

Cache L2_bank_005:
MSHR contents

In Dram Latency Queue (total = 0): 
DRAM[2]: 16 bks, busW=4 BL=8 CL=12, tRRD=2 tCCD=6, tRCD=12 tRAS=28 tRP=12 tRC=40
n_cmd=319406 n_nop=318696 n_act=15 n_pre=1 n_req=347 n_rd=694 n_write=0 bw_util=0.004346
n_activity=5104 dram_eff=0.2719
bk0: 6a 319356i bk1: 4a 319385i bk2: 0a 319405i bk3: 0a 319408i bk4: 20a 319337i bk5: 24a 319278i bk6: 64a 319148i bk7: 64a 319100i bk8: 64a 319266i bk9: 64a 319264i bk10: 64a 319262i bk11: 64a 319264i bk12: 64a 319257i bk13: 64a 319264i bk14: 64a 319261i bk15: 64a 319264i 
dram_util_bins: 0 0 0 0 0 0 0 0 0 0
dram_eff_bins: 0 0 0 0 0 0 0 0 0 0
mrqq: max=16 avg=0.00606751
Memory Partition 3: 
Cache L2_bank_006:
MSHR contents

Cache L2_bank_007:
MSHR contents

In Dram Latency Queue (total = 0): 
DRAM[3]: 16 bks, busW=4 BL=8 CL=12, tRRD=2 tCCD=6, tRCD=12 tRAS=28 tRP=12 tRC=40
n_cmd=319406 n_nop=318700 n_act=14 n_pre=0 n_req=346 n_rd=692 n_write=0 bw_util=0.004333
n_activity=5082 dram_eff=0.2723
bk0: 4a 319381i bk1: 4a 319382i bk2: 0a 319401i bk3: 0a 319404i bk4: 20a 319347i bk5: 24a 319313i bk6: 64a 319203i bk7: 64a 319137i bk8: 64a 319269i bk9: 64a 319265i bk10: 64a 319267i bk11: 64a 319267i bk12: 64a 319265i bk13: 64a 319263i bk14: 64a 319261i bk15: 64a 319261i 
dram_util_bins: 0 0 0 0 0 0 0 0 0 0
dram_eff_bins: 0 0 0 0 0 0 0 0 0 0
mrqq: max=13 avg=0.00432678
Memory Partition 4: 
Cache L2_bank_008:
MSHR contents

Cache L2_bank_009:
MSHR contents

In Dram Latency Queue (total = 0): 
DRAM[4]: 16 bks, busW=4 BL=8 CL=12, tRRD=2 tCCD=6, tRCD=12 tRAS=28 tRP=12 tRC=40
n_cmd=319406 n_nop=318700 n_act=14 n_pre=0 n_req=346 n_rd=692 n_write=0 bw_util=0.004333
n_activity=5022 dram_eff=0.2756
bk0: 4a 319382i bk1: 4a 319383i bk2: 0a 319405i bk3: 0a 319406i bk4: 20a 319340i bk5: 24a 319314i bk6: 64a 319153i bk7: 64a 319076i bk8: 64a 319266i bk9: 64a 319267i bk10: 64a 319267i bk11: 64a 319265i bk12: 64a 319264i bk13: 64a 319258i bk14: 64a 319261i bk15: 64a 319258i 
dram_util_bins: 0 0 0 0 0 0 0 0 0 0
dram_eff_bins: 0 0 0 0 0 0 0 0 0 0
mrqq: max=16 avg=0.00647452
Memory Partition 5: 
Cache L2_bank_010:
MSHR contents

Cache L2_bank_011:
MSHR contents

In Dram Latency Queue (total = 0): 
DRAM[5]: 16 bks, busW=4 BL=8 CL=12, tRRD=2 tCCD=6, tRCD=12 tRAS=28 tRP=12 tRC=40
n_cmd=319406 n_nop=318700 n_act=14 n_pre=0 n_req=346 n_rd=692 n_write=0 bw_util=0.004333
n_activity=5106 dram_eff=0.2711
bk0: 4a 319382i bk1: 4a 319383i bk2: 0a 319404i bk3: 0a 319408i bk4: 20a 319328i bk5: 24a 319313i bk6: 64a 319166i bk7: 64a 319114i bk8: 64a 319267i bk9: 64a 319259i bk10: 64a 319264i bk11: 64a 319265i bk12: 64a 319264i bk13: 64a 319263i bk14: 64a 319263i bk15: 64a 319263i 
dram_util_bins: 0 0 0 0 0 0 0 0 0 0
dram_eff_bins: 0 0 0 0 0 0 0 0 0 0
mrqq: max=14 avg=0.00457412

========= L2 cache stats =========
L2_cache_bank[0]: Access = 782, Miss = 175, Miss_rate = 0.224, Pending_hits = 15, Reservation_fails = 505
L2_cache_bank[1]: Access = 738, Miss = 172, Miss_rate = 0.233, Pending_hits = 6, Reservation_fails = 164
L2_cache_bank[2]: Access = 796, Miss = 175, Miss_rate = 0.220, Pending_hits = 15, Reservation_fails = 451
L2_cache_bank[3]: Access = 736, Miss = 172, Miss_rate = 0.234, Pending_hits = 6, Reservation_fails = 169
L2_cache_bank[4]: Access = 753, Miss = 173, Miss_rate = 0.230, Pending_hits = 9, Reservation_fails = 279
L2_cache_bank[5]: Access = 745, Miss = 174, Miss_rate = 0.234, Pending_hits = 6, Reservation_fails = 213
L2_cache_bank[6]: Access = 734, Miss = 172, Miss_rate = 0.234, Pending_hits = 6, Reservation_fails = 180
L2_cache_bank[7]: Access = 746, Miss = 174, Miss_rate = 0.233, Pending_hits = 6, Reservation_fails = 190
L2_cache_bank[8]: Access = 736, Miss = 172, Miss_rate = 0.234, Pending_hits = 6, Reservation_fails = 174
L2_cache_bank[9]: Access = 746, Miss = 174, Miss_rate = 0.233, Pending_hits = 6, Reservation_fails = 209
L2_cache_bank[10]: Access = 738, Miss = 172, Miss_rate = 0.233, Pending_hits = 6, Reservation_fails = 173
L2_cache_bank[11]: Access = 746, Miss = 174, Miss_rate = 0.233, Pending_hits = 6, Reservation_fails = 163
L2_total_cache_accesses = 8996
L2_total_cache_misses = 2079
L2_total_cache_miss_rate = 0.2311
L2_total_cache_pending_hits = 93
L2_total_cache_reservation_fails = 2870
L2_total_cache_breakdown:
	L2_cache_stats_breakdown[GLOBAL_ACC_R][HIT] = 2012
	L2_cache_stats_breakdown[GLOBAL_ACC_R][MISS] = 2048
	L2_cache_stats_breakdown[CONST_ACC_R][HIT] = 661
	L2_cache_stats_breakdown[CONST_ACC_R][HIT_RESERVED] = 78
	L2_cache_stats_breakdown[CONST_ACC_R][MISS] = 26
	L2_cache_stats_breakdown[CONST_ACC_R][RESERVATION_FAIL] = 2354
	L2_cache_stats_breakdown[GLOBAL_ACC_W][HIT] = 4096
	L2_cache_stats_breakdown[INST_ACC_R][HIT] = 55
	L2_cache_stats_breakdown[INST_ACC_R][HIT_RESERVED] = 15
	L2_cache_stats_breakdown[INST_ACC_R][MISS] = 5
	L2_cache_stats_breakdown[INST_ACC_R][RESERVATION_FAIL] = 516
L2_cache_data_port_util = 0.006
L2_cache_fill_port_util = 0.003

icnt_total_pkts_mem_to_simt=27066
icnt_total_pkts_simt_to_mem=17188
LD_mem_lat_dist  0 0 0 0 0 0 0 0 0 0 0 0 0 0 0 0 0 0 0 0 0 0 0 0 0 0 0
ST_mem_lat_dist  0 0 0 0 0 0 0 0 0 0 0 0 0 0 0 0 0 0 0 0 0 0 0 0 0 0 0
----------------------------Interconnect-DETAILS--------------------------------
Class 0:
Packet latency average = 10.6456
	minimum = 6
	maximum = 92
Network latency average = 9.37183
	minimum = 6
	maximum = 85
Slowest packet = 2660
Flit latency average = 8.19743
	minimum = 6
	maximum = 81
Slowest flit = 5982
Fragmentation average = 0
	minimum = 0
	maximum = 0
Injected packet rate average = 0.00275388
	minimum = 0.0024548 (at node 4)
	maximum = 0.0032896 (at node 17)
Accepted packet rate average = 0.00275388
	minimum = 0.0024548 (at node 4)
	maximum = 0.0032896 (at node 17)
Injected flit rate average = 0.00677358
	minimum = 0.00470297 (at node 4)
	maximum = 0.0100837 (at node 17)
Accepted flit rate average= 0.00677358
	minimum = 0.00584358 (at node 21)
	maximum = 0.00783552 (at node 11)
Injected packet length average = 2.45965
Accepted packet length average = 2.45965
Total in-flight flits = 0 (0 measured)
====== Overall Traffic Statistics ======
====== Traffic class 0 ======
Packet latency average = 10.6456 (1 samples)
	minimum = 6 (1 samples)
	maximum = 92 (1 samples)
Network latency average = 9.37183 (1 samples)
	minimum = 6 (1 samples)
	maximum = 85 (1 samples)
Flit latency average = 8.19743 (1 samples)
	minimum = 6 (1 samples)
	maximum = 81 (1 samples)
Fragmentation average = 0 (1 samples)
	minimum = 0 (1 samples)
	maximum = 0 (1 samples)
Injected packet rate average = 0.00275388 (1 samples)
	minimum = 0.0024548 (1 samples)
	maximum = 0.0032896 (1 samples)
Accepted packet rate average = 0.00275388 (1 samples)
	minimum = 0.0024548 (1 samples)
	maximum = 0.0032896 (1 samples)
Injected flit rate average = 0.00677358 (1 samples)
	minimum = 0.00470297 (1 samples)
	maximum = 0.0100837 (1 samples)
Accepted flit rate average = 0.00677358 (1 samples)
	minimum = 0.00584358 (1 samples)
	maximum = 0.00783552 (1 samples)
Injected packet size average = 2.45965 (1 samples)
Accepted packet size average = 2.45965 (1 samples)
Hops average = 1 (1 samples)
----------------------------END-of-Interconnect-DETAILS-------------------------


gpgpu_simulation_time = 0 days, 0 hrs, 4 min, 28 sec (268 sec)
gpgpu_simulation_rate = 470000 (inst/sec)
gpgpu_simulation_rate = 902 (cycle/sec)
IO:      0.000000
GPU:     268.083648
Copy:    0.019961
Compute: 0.000113
