

        *** GPGPU-Sim Simulator Version 3.2.2  [build 0] ***


GPGPU-Sim PTX: simulation mode 0 (can change with PTX_SIM_MODE_FUNC environment variable:
               1=functional simulation only, 0=detailed performance simulator)
GPGPU-Sim: Configuration options:

-network_mode                           1 # Interconnection network mode
-inter_config_file   config_fermi_islip.icnt # Interconnection network config file
-gpgpu_ptx_use_cuobjdump                    1 # Use cuobjdump to extract ptx and sass from binaries
-gpgpu_experimental_lib_support                    0 # Try to extract code from cuda libraries [Broken because of unknown cudaGetExportTable]
-gpgpu_ptx_convert_to_ptxplus                    0 # Convert SASS (native ISA) to ptxplus and run ptxplus
-gpgpu_ptx_force_max_capability                   20 # Force maximum compute capability
-gpgpu_ptx_inst_debug_to_file                    0 # Dump executed instructions' debug information to file
-gpgpu_ptx_inst_debug_file       inst_debug.txt # Executed instructions' debug output file
-gpgpu_ptx_inst_debug_thread_uid                    1 # Thread UID for executed instructions' debug output
-gpgpu_simd_model                       1 # 1 = post-dominator
-gpgpu_shader_core_pipeline              1536:32 # shader core pipeline config, i.e., {<nthread>:<warpsize>}
-gpgpu_tex_cache:l1  4:128:24,L:R:m:N:L,F:128:4,128:2 # per-shader L1 texture cache  (READ-ONLY) config  {<nsets>:<bsize>:<assoc>,<rep>:<wr>:<alloc>:<wr_alloc>,<mshr>:<N>:<merge>,<mq>:<rf>}
-gpgpu_const_cache:l1 64:64:2,L:R:f:N:L,A:2:32,4 # per-shader L1 constant memory cache  (READ-ONLY) config  {<nsets>:<bsize>:<assoc>,<rep>:<wr>:<alloc>:<wr_alloc>,<mshr>:<N>:<merge>,<mq>} 
-gpgpu_cache:il1     4:128:4,L:R:f:N:L,A:2:32,4 # shader L1 instruction cache config  {<nsets>:<bsize>:<assoc>,<rep>:<wr>:<alloc>:<wr_alloc>,<mshr>:<N>:<merge>,<mq>} 
-gpgpu_cache:dl1     64:128:2,L:L:m:N:H,A:32:8,8 # per-shader L1 data cache config  {<nsets>:<bsize>:<assoc>,<rep>:<wr>:<alloc>:<wr_alloc>,<mshr>:<N>:<merge>,<mq> | none}
-gpgpu_cache:dl1PrefL1                 none # per-shader L1 data cache config  {<nsets>:<bsize>:<assoc>,<rep>:<wr>:<alloc>:<wr_alloc>,<mshr>:<N>:<merge>,<mq> | none}
-gpgpu_cache:dl1PreShared                 none # per-shader L1 data cache config  {<nsets>:<bsize>:<assoc>,<rep>:<wr>:<alloc>:<wr_alloc>,<mshr>:<N>:<merge>,<mq> | none}
-gmem_skip_L1D                          0 # global memory access skip L1D cache (implements -Xptxas -dlcm=cg, default=no skip)
-gpgpu_perfect_mem                      0 # enable perfect memory mode (no cache miss)
-n_regfile_gating_group                    4 # group of lanes that should be read/written together)
-gpgpu_clock_gated_reg_file                    0 # enable clock gated reg file for power calculations
-gpgpu_clock_gated_lanes                    0 # enable clock gated lanes for power calculations
-gpgpu_shader_registers                32768 # Number of registers per shader core. Limits number of concurrent CTAs. (default 8192)
-gpgpu_shader_cta                       8 # Maximum number of concurrent CTAs in shader (default 8)
-gpgpu_num_cta_barriers                   16 # Maximum number of named barriers per CTA (default 16)
-gpgpu_n_clusters                      15 # number of processing clusters
-gpgpu_n_cores_per_cluster                    1 # number of simd cores per cluster
-gpgpu_n_cluster_ejection_buffer_size                    8 # number of packets in ejection buffer
-gpgpu_n_ldst_response_buffer_size                    2 # number of response packets in ld/st unit ejection buffer
-gpgpu_shmem_size                   16384 # Size of shared memory per shader core (default 16kB)
-gpgpu_shmem_size                   49152 # Size of shared memory per shader core (default 16kB)
-gpgpu_shmem_size_PrefL1                16384 # Size of shared memory per shader core (default 16kB)
-gpgpu_shmem_size_PrefShared                16384 # Size of shared memory per shader core (default 16kB)
-gpgpu_shmem_num_banks                   32 # Number of banks in the shared memory in each shader core (default 16)
-gpgpu_shmem_limited_broadcast                    0 # Limit shared memory to do one broadcast per cycle (default on)
-gpgpu_shmem_warp_parts                    1 # Number of portions a warp is divided into for shared memory bank conflict check 
-gpgpu_warpdistro_shader                   -1 # Specify which shader core to collect the warp size distribution from
-gpgpu_warp_issue_shader                    0 # Specify which shader core to collect the warp issue distribution from
-gpgpu_local_mem_map                    1 # Mapping from local memory space address to simulated GPU physical address space (default = enabled)
-gpgpu_num_reg_banks                   16 # Number of register banks (default = 8)
-gpgpu_reg_bank_use_warp_id                    0 # Use warp ID in mapping registers to banks (default = off)
-gpgpu_operand_collector_num_units_sp                    6 # number of collector units (default = 4)
-gpgpu_operand_collector_num_units_sfu                    8 # number of collector units (default = 4)
-gpgpu_operand_collector_num_units_mem                    2 # number of collector units (default = 2)
-gpgpu_operand_collector_num_units_gen                    0 # number of collector units (default = 0)
-gpgpu_operand_collector_num_in_ports_sp                    2 # number of collector unit in ports (default = 1)
-gpgpu_operand_collector_num_in_ports_sfu                    1 # number of collector unit in ports (default = 1)
-gpgpu_operand_collector_num_in_ports_mem                    1 # number of collector unit in ports (default = 1)
-gpgpu_operand_collector_num_in_ports_gen                    0 # number of collector unit in ports (default = 0)
-gpgpu_operand_collector_num_out_ports_sp                    2 # number of collector unit in ports (default = 1)
-gpgpu_operand_collector_num_out_ports_sfu                    1 # number of collector unit in ports (default = 1)
-gpgpu_operand_collector_num_out_ports_mem                    1 # number of collector unit in ports (default = 1)
-gpgpu_operand_collector_num_out_ports_gen                    0 # number of collector unit in ports (default = 0)
-gpgpu_coalesce_arch                   13 # Coalescing arch (default = 13, anything else is off for now)
-gpgpu_num_sched_per_core                    2 # Number of warp schedulers per core
-gpgpu_max_insn_issue_per_warp                    1 # Max number of instructions that can be issued per warp in one cycle by scheduler
-gpgpu_simt_core_sim_order                    1 # Select the simulation order of cores in a cluster (0=Fix, 1=Round-Robin)
-gpgpu_pipeline_widths        2,1,1,2,1,1,2 # Pipeline widths ID_OC_SP,ID_OC_SFU,ID_OC_MEM,OC_EX_SP,OC_EX_SFU,OC_EX_MEM,EX_WB
-gpgpu_num_sp_units                     2 # Number of SP units (default=1)
-gpgpu_num_sfu_units                    1 # Number of SF units (default=1)
-gpgpu_num_mem_units                    1 # Number if ldst units (default=1) WARNING: not hooked up to anything
-gpgpu_scheduler                      gto # Scheduler configuration: < lrr | gto | two_level_active > If two_level_active:<num_active_warps>:<inner_prioritization>:<outer_prioritization>For complete list of prioritization values see shader.h enum scheduler_prioritization_typeDefault: gto
-gpgpu_dram_scheduler                    1 # 0 = fifo, 1 = FR-FCFS (defaul)
-gpgpu_dram_partition_queues              8:8:8:8 # i2$:$2d:d2$:$2i
-l2_ideal                               0 # Use a ideal L2 cache that always hit
-gpgpu_cache:dl2     64:128:8,L:B:m:W:L,A:32:4,4:0,32 # unified banked L2 data cache config  {<nsets>:<bsize>:<assoc>,<rep>:<wr>:<alloc>:<wr_alloc>,<mshr>:<N>:<merge>,<mq>}
-gpgpu_cache:dl2_texture_only                    0 # L2 cache used for texture only
-gpgpu_n_mem                            6 # number of memory modules (e.g. memory controllers) in gpu
-gpgpu_n_sub_partition_per_mchannel                    2 # number of memory subpartition in each memory module
-gpgpu_n_mem_per_ctrlr                    2 # number of memory chips per memory controller
-gpgpu_memlatency_stat                   14 # track and display latency statistics 0x2 enables MC, 0x4 enables queue logs
-gpgpu_frfcfs_dram_sched_queue_size                   16 # 0 = unlimited (default); # entries per chip
-gpgpu_dram_return_queue_size                  116 # 0 = unlimited (default); # entries per chip
-gpgpu_dram_buswidth                    4 # default = 4 bytes (8 bytes per cycle at DDR)
-gpgpu_dram_burst_length                    8 # Burst length of each DRAM request (default = 4 data bus cycle)
-dram_data_command_freq_ratio                    4 # Frequency ratio between DRAM data bus and command bus (default = 2 times, i.e. DDR)
-gpgpu_dram_timing_opt nbk=16:CCD=2:RRD=6:RCD=12:RAS=28:RP=12:RC=40: CL=12:WL=4:CDLR=5:WR=12:nbkgrp=4:CCDL=3:RTPL=2 # DRAM timing parameters = {nbk:tCCD:tRRD:tRCD:tRAS:tRP:tRC:CL:WL:tCDLR:tWR:nbkgrp:tCCDL:tRTPL}
-rop_latency                          120 # ROP queue latency (default 85)
-dram_latency                         100 # DRAM latency (default 30)
-gpgpu_mem_addr_mapping dramid@8;00000000.00000000.00000000.00000000.0000RRRR.RRRRRRRR.BBBCCCCB.CCSSSSSS # mapping memory address to dram model {dramid@<start bit>;<memory address map>}
-gpgpu_mem_addr_test                    0 # run sweep test to check address mapping for aliased address
-gpgpu_mem_address_mask                    1 # 0 = old addressing mask, 1 = new addressing mask, 2 = new add. mask + flipped bank sel and chip sel bits
-gpuwattch_xml_file  gpuwattch_gtx480.xml # GPUWattch XML file
-power_simulation_enabled                    1 # Turn on power simulator (1=On, 0=Off)
-power_per_cycle_dump                    0 # Dump detailed power output each cycle
-power_trace_enabled                    0 # produce a file for the power trace (1=On, 0=Off)
-power_trace_zlevel                     6 # Compression level of the power trace output log (0=no comp, 9=highest)
-steady_power_levels_enabled                    0 # produce a file for the steady power levels (1=On, 0=Off)
-steady_state_definition                  8:4 # allowed deviation:number of samples
-gpgpu_max_cycle                        0 # terminates gpu simulation early (0 = no limit)
-gpgpu_max_insn                         0 # terminates gpu simulation early (0 = no limit)
-gpgpu_max_cta                          0 # terminates gpu simulation early (0 = no limit)
-gpgpu_runtime_stat                   500 # display runtime statistics such as dram utilization {<freq>:<flag>}
-liveness_message_freq                    1 # Minimum number of seconds between simulation liveness messages (0 = always print)
-gpgpu_flush_l1_cache                    0 # Flush L1 cache at the end of each kernel call
-gpgpu_flush_l2_cache                    0 # Flush L2 cache at the end of each kernel call
-gpgpu_deadlock_detect                    1 # Stop the simulation at deadlock (1=on (default), 0=off)
-gpgpu_ptx_instruction_classification                    0 # if enabled will classify ptx instruction types per kernel (Max 255 kernels now)
-gpgpu_ptx_sim_mode                     0 # Select between Performance (default) or Functional simulation (1)
-gpgpu_clock_domains 700.0:700.0:700.0:924.0 # Clock Domain Frequencies in MhZ {<Core Clock>:<ICNT Clock>:<L2 Clock>:<DRAM Clock>}
-gpgpu_max_concurrent_kernel                    8 # maximum kernels that can run concurrently on GPU
-gpgpu_cflog_interval                    0 # Interval between each snapshot in control flow logger
-visualizer_enabled                     0 # Turn on visualizer output (1=On, 0=Off)
-visualizer_outputfile                 NULL # Specifies the output log file for visualizer
-visualizer_zlevel                      6 # Compression level of the visualizer output log (0=no comp, 9=highest)
-trace_enabled                          0 # Turn on traces
-trace_components                    none # comma seperated list of traces to enable. Complete list found in trace_streams.tup. Default none
-trace_sampling_core                    0 # The core which is printed using CORE_DPRINTF. Default 0
-trace_sampling_memory_partition                   -1 # The memory partition which is printed using MEMPART_DPRINTF. Default -1 (i.e. all)
-enable_ptx_file_line_stats                    1 # Turn on PTX source line statistic profiling. (1 = On)
-ptx_line_stats_filename gpgpu_inst_stats.txt # Output file for PTX source line statistics.
-save_embedded_ptx                      0 # saves ptx files embedded in binary as <n>.ptx
-keep                                   0 # keep intermediate files created by GPGPU-Sim when interfacing with external programs
-gpgpu_ptx_save_converted_ptxplus                    0 # Saved converted ptxplus to a file
-ptx_opcode_latency_int         4,13,4,5,145 # Opcode latencies for integers <ADD,MAX,MUL,MAD,DIV>Default 1,1,19,25,145
-ptx_opcode_latency_fp          4,13,4,5,39 # Opcode latencies for single precision floating points <ADD,MAX,MUL,MAD,DIV>Default 1,1,1,1,30
-ptx_opcode_latency_dp         8,19,8,8,330 # Opcode latencies for double precision floating points <ADD,MAX,MUL,MAD,DIV>Default 8,8,8,8,335
-ptx_opcode_initiation_int            1,2,2,1,8 # Opcode initiation intervals for integers <ADD,MAX,MUL,MAD,DIV>Default 1,1,4,4,32
-ptx_opcode_initiation_fp            1,2,1,1,4 # Opcode initiation intervals for single precision floating points <ADD,MAX,MUL,MAD,DIV>Default 1,1,1,1,5
-ptx_opcode_initiation_dp         8,16,8,8,130 # Opcode initiation intervals for double precision floating points <ADD,MAX,MUL,MAD,DIV>Default 8,8,8,8,130
DRAM Timing Options:
nbk                                    16 # number of banks
CCD                                     2 # column to column delay
RRD                                     6 # minimal delay between activation of rows in different banks
RCD                                    12 # row to column delay
RAS                                    28 # time needed to activate row
RP                                     12 # time needed to precharge (deactivate) row
RC                                     40 # row cycle time
CDLR                                    5 # switching from write to read (changes tWTR)
WR                                     12 # last data-in to row precharge
CL                                     12 # CAS latency
WL                                      4 # Write latency
nbkgrp                                  4 # number of bank groups
CCDL                                    3 # column to column delay between accesses to different bank groups
RTPL                                    2 # read to precharge delay between accesses to different bank groups
Total number of memory sub partition = 12
addr_dec_mask[CHIP]  = 0000000000000000 	high:64 low:0
addr_dec_mask[BK]    = 000000000000e100 	high:16 low:8
addr_dec_mask[ROW]   = 000000000fff0000 	high:28 low:16
addr_dec_mask[COL]   = 0000000000001eff 	high:13 low:0
addr_dec_mask[BURST] = 000000000000003f 	high:6 low:0
sub_partition_id_mask = 0000000000000100
GPGPU-Sim uArch: clock freqs: 700000000.000000:700000000.000000:700000000.000000:924000000.000000
GPGPU-Sim uArch: clock periods: 0.00000000142857142857:0.00000000142857142857:0.00000000142857142857:0.00000000108225108225
*** Initializing Memory Statistics ***
GPGPU-Sim uArch: interconnect node map (shaderID+MemID to icntID)
GPGPU-Sim uArch: Memory nodes ID start from index: 15
GPGPU-Sim uArch:    0   1   2   3   4
GPGPU-Sim uArch:    5   6   7   8   9
GPGPU-Sim uArch:   10  11  12  13  14
GPGPU-Sim uArch:   15  16  17  18  19
GPGPU-Sim uArch:   20  21  22  23  24
GPGPU-Sim uArch:   25  26
GPGPU-Sim uArch: interconnect node reverse map (icntID to shaderID+MemID)
GPGPU-Sim uArch: Memory nodes start from ID: 15
GPGPU-Sim uArch:    0   1   2   3   4
GPGPU-Sim uArch:    5   6   7   8   9
GPGPU-Sim uArch:   10  11  12  13  14
GPGPU-Sim uArch:   15  16  17  18  19
GPGPU-Sim uArch:   20  21  22  23  24
GPGPU-Sim uArch:   25  26
36bb1eeaa5c1ff7ca0ddea1af00eaab8  /home/scratch/adwait/applications/benchmarks/CUDA/NN/gpgpu_ptx_sim__NN
GPGPU-Sim uArch: performance model initialization complete.
GPGPU-Sim PTX: __cudaRegisterFatBinary, fat_cubin_handle = 1, filename=NN.cu
self exe links to: /home/scratch/adwait/applications/benchmarks/CUDA/NN/gpgpu_ptx_sim__NN
Running md5sum using "md5sum /home/scratch/adwait/applications/benchmarks/CUDA/NN/gpgpu_ptx_sim__NN "
Running cuobjdump using "$CUDA_INSTALL_PATH/bin/cuobjdump -ptx -elf -sass /home/scratch/adwait/applications/benchmarks/CUDA/NN/gpgpu_ptx_sim__NN > _cuobjdump_complete_output_FaXKNQ"
Parsing file _cuobjdump_complete_output_FaXKNQ
######### cuobjdump parser ########
## Adding new section ELF
Adding arch: sm_20
Adding identifier: NN.cu
## Adding new section PTX
Adding ptx filename: _cuobjdump_1.ptx
Adding arch: sm_20
Adding identifier: NN.cu
Done parsing!!!
GPGPU-Sim PTX: __cudaRegisterFunction _Z18executeFourthLayerPfS_S_ : hostFun 0x0x402a51, fat_cubin_handle = 1
GPGPU-Sim PTX: allocating constant region for "kernelTemplate" from 0x100 to 0x164 (global memory space) 1
GPGPU-Sim PTX: instruction assembly for function '_Z17executeFirstLayerPfS_S_'...   done.
GPGPU-Sim PTX: finding reconvergence points for '_Z17executeFirstLayerPfS_S_'...
GPGPU-Sim PTX: Finding dominators for '_Z17executeFirstLayerPfS_S_'...
GPGPU-Sim PTX: Finding immediate dominators for '_Z17executeFirstLayerPfS_S_'...
GPGPU-Sim PTX: Finding postdominators for '_Z17executeFirstLayerPfS_S_'...
GPGPU-Sim PTX: Finding immediate postdominators for '_Z17executeFirstLayerPfS_S_'...
GPGPU-Sim PTX: pre-decoding instructions for '_Z17executeFirstLayerPfS_S_'...
GPGPU-Sim PTX: reconvergence points for _Z17executeFirstLayerPfS_S_...
GPGPU-Sim PTX:  1 (potential) branch divergence @  PC=0x100 (_1.ptx:100) @%p1 bra $Lt_0_4098;
GPGPU-Sim PTX:    immediate post dominator      @  PC=0x108 (_1.ptx:102) cvt.f64.f32 %fd1, %f1;
GPGPU-Sim PTX:  2 (potential) branch divergence @  PC=0x148 (_1.ptx:110) @!%p2 bra $Lt_0_4866;
GPGPU-Sim PTX:    immediate post dominator      @  PC=0x2a8 (_1.ptx:162) cvt.f64.f32 %fd5, %f29;
GPGPU-Sim PTX:  3 (potential) branch divergence @  PC=0x230 (_1.ptx:142) bra.uni $Lt_0_4610;
GPGPU-Sim PTX:    immediate post dominator      @  PC=0x2a8 (_1.ptx:162) cvt.f64.f32 %fd5, %f29;
GPGPU-Sim PTX: ... end of reconvergence points for _Z17executeFirstLayerPfS_S_
GPGPU-Sim PTX: ... done pre-decoding instructions for '_Z17executeFirstLayerPfS_S_'.
GPGPU-Sim PTX: allocating constant region for "kernelTemplate2" from 0x180 to 0x1e4 (global memory space) 2
GPGPU-Sim PTX: instruction assembly for function '_Z18executeSecondLayerPfS_S_'...   done.
GPGPU-Sim PTX: finding reconvergence points for '_Z18executeSecondLayerPfS_S_'...
GPGPU-Sim PTX: Finding dominators for '_Z18executeSecondLayerPfS_S_'...
GPGPU-Sim PTX: Finding immediate dominators for '_Z18executeSecondLayerPfS_S_'...
GPGPU-Sim PTX: Finding postdominators for '_Z18executeSecondLayerPfS_S_'...
GPGPU-Sim PTX: Finding immediate postdominators for '_Z18executeSecondLayerPfS_S_'...
GPGPU-Sim PTX: pre-decoding instructions for '_Z18executeSecondLayerPfS_S_'...
GPGPU-Sim PTX: reconvergence points for _Z18executeSecondLayerPfS_S_...
GPGPU-Sim PTX:  1 (potential) branch divergence @  PC=0x4a0 (_1.ptx:251) @%p1 bra $Lt_1_5634;
GPGPU-Sim PTX:    immediate post dominator      @  PC=0x4a8 (_1.ptx:253) cvt.f64.f32 %fd1, %f1;
GPGPU-Sim PTX:  2 (potential) branch divergence @  PC=0x4e8 (_1.ptx:261) @!%p2 bra $Lt_1_6402;
GPGPU-Sim PTX:    immediate post dominator      @  PC=0x648 (_1.ptx:313) cvt.f64.f32 %fd5, %f44;
GPGPU-Sim PTX:  3 (potential) branch divergence @  PC=0x5d0 (_1.ptx:293) bra.uni $Lt_1_6146;
GPGPU-Sim PTX:    immediate post dominator      @  PC=0x648 (_1.ptx:313) cvt.f64.f32 %fd5, %f44;
GPGPU-Sim PTX: ... end of reconvergence points for _Z18executeSecondLayerPfS_S_
GPGPU-Sim PTX: ... done pre-decoding instructions for '_Z18executeSecondLayerPfS_S_'.
GPGPU-Sim PTX: instruction assembly for function '_Z17executeThirdLayerPfS_S_'...   done.
GPGPU-Sim PTX: finding reconvergence points for '_Z17executeThirdLayerPfS_S_'...
GPGPU-Sim PTX: Finding dominators for '_Z17executeThirdLayerPfS_S_'...
GPGPU-Sim PTX: Finding immediate dominators for '_Z17executeThirdLayerPfS_S_'...
GPGPU-Sim PTX: Finding postdominators for '_Z17executeThirdLayerPfS_S_'...
GPGPU-Sim PTX: Finding immediate postdominators for '_Z17executeThirdLayerPfS_S_'...
GPGPU-Sim PTX: pre-decoding instructions for '_Z17executeThirdLayerPfS_S_'...
GPGPU-Sim PTX: reconvergence points for _Z17executeThirdLayerPfS_S_...
GPGPU-Sim PTX:  1 (potential) branch divergence @  PC=0x788 (_1.ptx:373) @%p1 bra $Lt_2_4098;
GPGPU-Sim PTX:    immediate post dominator      @  PC=0x790 (_1.ptx:375) cvt.f64.f32 %fd1, %f1;
GPGPU-Sim PTX:  2 (potential) branch divergence @  PC=0x7d0 (_1.ptx:383) @!%p2 bra $Lt_2_4866;
GPGPU-Sim PTX:    immediate post dominator      @  PC=0x930 (_1.ptx:435) cvt.f64.f32 %fd5, %f29;
GPGPU-Sim PTX:  3 (potential) branch divergence @  PC=0x8b8 (_1.ptx:415) bra.uni $Lt_2_4610;
GPGPU-Sim PTX:    immediate post dominator      @  PC=0x930 (_1.ptx:435) cvt.f64.f32 %fd5, %f29;
GPGPU-Sim PTX: ... end of reconvergence points for _Z17executeThirdLayerPfS_S_
GPGPU-Sim PTX: ... done pre-decoding instructions for '_Z17executeThirdLayerPfS_S_'.
GPGPU-Sim PTX: instruction assembly for function '_Z18executeFourthLayerPfS_S_'...   done.
GPGPU-Sim PTX: finding reconvergence points for '_Z18executeFourthLayerPfS_S_'...
GPGPU-Sim PTX: Finding dominators for '_Z18executeFourthLayerPfS_S_'...
GPGPU-Sim PTX: Finding immediate dominators for '_Z18executeFourthLayerPfS_S_'...
GPGPU-Sim PTX: Finding postdominators for '_Z18executeFourthLayerPfS_S_'...
GPGPU-Sim PTX: Finding immediate postdominators for '_Z18executeFourthLayerPfS_S_'...
GPGPU-Sim PTX: pre-decoding instructions for '_Z18executeFourthLayerPfS_S_'...
GPGPU-Sim PTX: reconvergence points for _Z18executeFourthLayerPfS_S_...
GPGPU-Sim PTX:  1 (potential) branch divergence @  PC=0xa50 (_1.ptx:491) @%p1 bra $Lt_3_4098;
GPGPU-Sim PTX:    immediate post dominator      @  PC=0xa58 (_1.ptx:493) cvt.f64.f32 %fd1, %f1;
GPGPU-Sim PTX:  2 (potential) branch divergence @  PC=0xa98 (_1.ptx:501) @!%p2 bra $Lt_3_4866;
GPGPU-Sim PTX:    immediate post dominator      @  PC=0xbf8 (_1.ptx:553) cvt.f64.f32 %fd5, %f29;
GPGPU-Sim PTX:  3 (potential) branch divergence @  PC=0xb80 (_1.ptx:533) bra.uni $Lt_3_4610;
GPGPU-Sim PTX:    immediate post dominator      @  PC=0xbf8 (_1.ptx:553) cvt.f64.f32 %fd5, %f29;
GPGPU-Sim PTX: ... end of reconvergence points for _Z18executeFourthLayerPfS_S_
GPGPU-Sim PTX: ... done pre-decoding instructions for '_Z18executeFourthLayerPfS_S_'.
GPGPU-Sim PTX: finished parsing EMBEDDED .ptx file _1.ptx
Adding _cuobjdump_1.ptx with cubin handle 1
GPGPU-Sim PTX: extracting embedded .ptx to temporary file "_ptx_hM0RRy"
Running: cat _ptx_hM0RRy | sed 's/.version 1.5/.version 1.4/' | sed 's/, texmode_independent//' | sed 's/\(\.extern \.const\[1\] .b8 \w\+\)\[\]/\1\[1\]/' | sed 's/const\[.\]/const\[0\]/g' > _ptx2_zXplWg
GPGPU-Sim PTX: generating ptxinfo using "$CUDA_INSTALL_PATH/bin/ptxas --gpu-name=sm_20 -v _ptx2_zXplWg --output-file  /dev/null 2> _ptx_hM0RRyinfo"
GPGPU-Sim PTX: Kernel '_Z18executeFourthLayerPfS_S_' : regs=12, lmem=0, smem=0, cmem=288
GPGPU-Sim PTX: Kernel '_Z17executeThirdLayerPfS_S_' : regs=12, lmem=0, smem=0, cmem=288
GPGPU-Sim PTX: Kernel '_Z18executeSecondLayerPfS_S_' : regs=22, lmem=0, smem=0, cmem=288
GPGPU-Sim PTX: Kernel '_Z17executeFirstLayerPfS_S_' : regs=17, lmem=0, smem=0, cmem=288
GPGPU-Sim PTX: removing ptxinfo using "rm -f _ptx_hM0RRy _ptx2_zXplWg _ptx_hM0RRyinfo"
GPGPU-Sim PTX: loading globals with explicit initializers... 
GPGPU-Sim PTX: finished loading globals (0 bytes total).
GPGPU-Sim PTX: loading constants with explicit initializers...  done.
GPGPU-Sim PTX: __cudaRegisterFunction _Z17executeThirdLayerPfS_S_ : hostFun 0x0x40298f, fat_cubin_handle = 1
GPGPU-Sim PTX: __cudaRegisterFunction _Z18executeSecondLayerPfS_S_ : hostFun 0x0x4028cd, fat_cubin_handle = 1
GPGPU-Sim PTX: __cudaRegisterFunction _Z17executeFirstLayerPfS_S_ : hostFun 0x0x40280b, fat_cubin_handle = 1
GPGPU-Sim PTX: __cudaRegisterVar: hostVar = 0x60a180; deviceAddress = kernelTemplate; deviceName = kernelTemplate
GPGPU-Sim PTX: __cudaRegisterVar: Registering const memory space of 100 bytes
GPGPU-Sim PTX registering constant kernelTemplate (100 bytes) to name mapping
GPGPU-Sim PTX: __cudaRegisterVar: hostVar = 0x60a200; deviceAddress = kernelTemplate2; deviceName = kernelTemplate2
GPGPU-Sim PTX: __cudaRegisterVar: Registering const memory space of 100 bytes
GPGPU-Sim PTX registering constant kernelTemplate2 (100 bytes) to name mapping
magic number = 2051
number of items = 10000
number of rows = 28
number of rows = 28
NUM=28

GPGPU-Sim PTX: cudaLaunch for 0x0x40280b (mode=performance simulation) on stream 0
GPGPU-Sim PTX: pushing kernel '_Z17executeFirstLayerPfS_S_' to stream 0, gridDim= (6,28,1) blockDim = (13,13,1) 
kernel '_Z17executeFirstLayerPfS_S_' transfer to GPU hardware scheduler
GPGPU-Sim uArch: Shader 1 bind to kernel 1 '_Z17executeFirstLayerPfS_S_'
GPGPU-Sim uArch: CTA/core = 8, limited by: threads regs cta_limit
GPGPU-Sim uArch: core:  1, cta: 0 initialized @(1,0)
GPGPU-Sim uArch: Shader 2 bind to kernel 1 '_Z17executeFirstLayerPfS_S_'
GPGPU-Sim uArch: core:  2, cta: 0 initialized @(1,0)
GPGPU-Sim uArch: Shader 3 bind to kernel 1 '_Z17executeFirstLayerPfS_S_'
GPGPU-Sim uArch: core:  3, cta: 0 initialized @(1,0)
GPGPU-Sim uArch: Shader 4 bind to kernel 1 '_Z17executeFirstLayerPfS_S_'
GPGPU-Sim uArch: core:  4, cta: 0 initialized @(1,0)
GPGPU-Sim uArch: Shader 5 bind to kernel 1 '_Z17executeFirstLayerPfS_S_'
GPGPU-Sim uArch: core:  5, cta: 0 initialized @(1,0)
GPGPU-Sim uArch: Shader 6 bind to kernel 1 '_Z17executeFirstLayerPfS_S_'
GPGPU-Sim uArch: core:  6, cta: 0 initialized @(1,0)
GPGPU-Sim uArch: Shader 7 bind to kernel 1 '_Z17executeFirstLayerPfS_S_'
GPGPU-Sim uArch: core:  7, cta: 0 initialized @(1,0)
GPGPU-Sim uArch: Shader 8 bind to kernel 1 '_Z17executeFirstLayerPfS_S_'
GPGPU-Sim uArch: core:  8, cta: 0 initialized @(1,0)
GPGPU-Sim uArch: Shader 9 bind to kernel 1 '_Z17executeFirstLayerPfS_S_'
GPGPU-Sim uArch: core:  9, cta: 0 initialized @(1,0)
GPGPU-Sim uArch: Shader 10 bind to kernel 1 '_Z17executeFirstLayerPfS_S_'
GPGPU-Sim uArch: core: 10, cta: 0 initialized @(1,0)
GPGPU-Sim uArch: Shader 11 bind to kernel 1 '_Z17executeFirstLayerPfS_S_'
GPGPU-Sim uArch: core: 11, cta: 0 initialized @(1,0)
GPGPU-Sim uArch: Shader 12 bind to kernel 1 '_Z17executeFirstLayerPfS_S_'
GPGPU-Sim uArch: core: 12, cta: 0 initialized @(1,0)
GPGPU-Sim uArch: Shader 13 bind to kernel 1 '_Z17executeFirstLayerPfS_S_'
GPGPU-Sim uArch: core: 13, cta: 0 initialized @(1,0)
GPGPU-Sim uArch: Shader 14 bind to kernel 1 '_Z17executeFirstLayerPfS_S_'
GPGPU-Sim uArch: core: 14, cta: 0 initialized @(1,0)
GPGPU-Sim uArch: Shader 0 bind to kernel 1 '_Z17executeFirstLayerPfS_S_'
GPGPU-Sim uArch: core:  0, cta: 0 initialized @(1,0)
GPGPU-Sim uArch: core:  1, cta: 1 initialized @(2,0)
GPGPU-Sim uArch: core:  2, cta: 1 initialized @(2,0)
GPGPU-Sim uArch: core:  3, cta: 1 initialized @(2,0)
GPGPU-Sim uArch: core:  4, cta: 1 initialized @(2,0)
GPGPU-Sim uArch: core:  5, cta: 1 initialized @(2,0)
GPGPU-Sim uArch: core:  6, cta: 1 initialized @(2,0)
GPGPU-Sim uArch: core:  7, cta: 1 initialized @(2,0)
GPGPU-Sim uArch: core:  8, cta: 1 initialized @(2,0)
GPGPU-Sim uArch: core:  9, cta: 1 initialized @(2,0)
GPGPU-Sim uArch: core: 10, cta: 1 initialized @(2,0)
GPGPU-Sim uArch: core: 11, cta: 1 initialized @(2,0)
GPGPU-Sim uArch: core: 12, cta: 1 initialized @(2,0)
GPGPU-Sim uArch: core: 13, cta: 1 initialized @(2,0)
GPGPU-Sim uArch: core: 14, cta: 1 initialized @(2,0)
GPGPU-Sim uArch: core:  0, cta: 1 initialized @(2,0)
GPGPU-Sim uArch: core:  1, cta: 2 initialized @(3,0)
GPGPU-Sim uArch: core:  2, cta: 2 initialized @(3,0)
GPGPU-Sim uArch: core:  3, cta: 2 initialized @(3,0)
GPGPU-Sim uArch: core:  4, cta: 2 initialized @(3,0)
GPGPU-Sim uArch: core:  5, cta: 2 initialized @(3,0)
GPGPU-Sim uArch: core:  6, cta: 2 initialized @(3,0)
GPGPU-Sim uArch: core:  7, cta: 2 initialized @(3,0)
GPGPU-Sim uArch: core:  8, cta: 2 initialized @(3,0)
GPGPU-Sim uArch: core:  9, cta: 2 initialized @(3,0)
GPGPU-Sim uArch: core: 10, cta: 2 initialized @(3,0)
GPGPU-Sim uArch: core: 11, cta: 2 initialized @(3,0)
GPGPU-Sim uArch: core: 12, cta: 2 initialized @(3,0)
GPGPU-Sim uArch: core: 13, cta: 2 initialized @(3,0)
GPGPU-Sim uArch: core: 14, cta: 2 initialized @(3,0)
GPGPU-Sim uArch: core:  0, cta: 2 initialized @(3,0)
GPGPU-Sim uArch: core:  1, cta: 3 initialized @(4,0)
GPGPU-Sim uArch: core:  2, cta: 3 initialized @(4,0)
GPGPU-Sim uArch: core:  3, cta: 3 initialized @(4,0)
GPGPU-Sim uArch: core:  4, cta: 3 initialized @(4,0)
GPGPU-Sim uArch: core:  5, cta: 3 initialized @(4,0)
GPGPU-Sim uArch: core:  6, cta: 3 initialized @(4,0)
GPGPU-Sim uArch: core:  7, cta: 3 initialized @(4,0)
GPGPU-Sim uArch: core:  8, cta: 3 initialized @(4,0)
GPGPU-Sim uArch: core:  9, cta: 3 initialized @(4,0)
GPGPU-Sim uArch: core: 10, cta: 3 initialized @(4,0)
GPGPU-Sim uArch: core: 11, cta: 3 initialized @(4,0)
GPGPU-Sim uArch: core: 12, cta: 3 initialized @(4,0)
GPGPU-Sim uArch: core: 13, cta: 3 initialized @(4,0)
GPGPU-Sim uArch: core: 14, cta: 3 initialized @(4,0)
GPGPU-Sim uArch: core:  0, cta: 3 initialized @(4,0)
GPGPU-Sim uArch: core:  1, cta: 4 initialized @(5,0)
GPGPU-Sim uArch: core:  2, cta: 4 initialized @(5,0)
GPGPU-Sim uArch: core:  3, cta: 4 initialized @(5,0)
GPGPU-Sim uArch: core:  4, cta: 4 initialized @(5,0)
GPGPU-Sim uArch: core:  5, cta: 4 initialized @(5,0)
GPGPU-Sim uArch: core:  6, cta: 4 initialized @(5,0)
GPGPU-Sim uArch: core:  7, cta: 4 initialized @(5,0)
GPGPU-Sim uArch: core:  8, cta: 4 initialized @(5,0)
GPGPU-Sim uArch: core:  9, cta: 4 initialized @(5,0)
GPGPU-Sim uArch: core: 10, cta: 4 initialized @(5,0)
GPGPU-Sim uArch: core: 11, cta: 4 initialized @(5,0)
GPGPU-Sim uArch: core: 12, cta: 4 initialized @(5,0)
GPGPU-Sim uArch: core: 13, cta: 4 initialized @(5,0)
GPGPU-Sim uArch: core: 14, cta: 4 initialized @(5,0)
GPGPU-Sim uArch: core:  0, cta: 4 initialized @(5,0)
GPGPU-Sim uArch: core:  1, cta: 5 initialized @(6,0)
GPGPU-Sim uArch: core:  2, cta: 5 initialized @(6,0)
GPGPU-Sim uArch: core:  3, cta: 5 initialized @(6,0)
GPGPU-Sim uArch: core:  4, cta: 5 initialized @(6,0)
GPGPU-Sim uArch: core:  5, cta: 5 initialized @(6,0)
GPGPU-Sim uArch: core:  6, cta: 5 initialized @(6,0)
GPGPU-Sim uArch: core:  7, cta: 5 initialized @(6,0)
GPGPU-Sim uArch: core:  8, cta: 5 initialized @(6,0)
GPGPU-Sim uArch: core:  9, cta: 5 initialized @(6,0)
GPGPU-Sim uArch: core: 10, cta: 5 initialized @(6,0)
GPGPU-Sim uArch: core: 11, cta: 5 initialized @(6,0)
GPGPU-Sim uArch: core: 12, cta: 5 initialized @(6,0)
GPGPU-Sim uArch: core: 13, cta: 5 initialized @(6,0)
GPGPU-Sim uArch: core: 14, cta: 5 initialized @(6,0)
GPGPU-Sim uArch: core:  0, cta: 5 initialized @(6,0)
GPGPU-Sim uArch: core:  1, cta: 6 initialized @(7,0)
GPGPU-Sim uArch: core:  2, cta: 6 initialized @(7,0)
GPGPU-Sim uArch: core:  3, cta: 6 initialized @(7,0)
GPGPU-Sim uArch: core:  4, cta: 6 initialized @(7,0)
GPGPU-Sim uArch: core:  5, cta: 6 initialized @(7,0)
GPGPU-Sim uArch: core:  6, cta: 6 initialized @(7,0)
GPGPU-Sim uArch: core:  7, cta: 6 initialized @(7,0)
GPGPU-Sim uArch: core:  8, cta: 6 initialized @(7,0)
GPGPU-Sim uArch: core:  9, cta: 6 initialized @(7,0)
GPGPU-Sim uArch: core: 10, cta: 6 initialized @(7,0)
GPGPU-Sim uArch: core: 11, cta: 6 initialized @(7,0)
GPGPU-Sim uArch: core: 12, cta: 6 initialized @(7,0)
GPGPU-Sim uArch: core: 13, cta: 6 initialized @(7,0)
GPGPU-Sim uArch: core: 14, cta: 6 initialized @(7,0)
GPGPU-Sim uArch: core:  0, cta: 6 initialized @(7,0)
GPGPU-Sim uArch: core:  1, cta: 7 initialized @(8,0)
GPGPU-Sim uArch: core:  2, cta: 7 initialized @(8,0)
GPGPU-Sim uArch: core:  3, cta: 7 initialized @(8,0)
GPGPU-Sim uArch: core:  4, cta: 7 initialized @(8,0)
GPGPU-Sim uArch: core:  5, cta: 7 initialized @(8,0)
GPGPU-Sim uArch: core:  6, cta: 7 initialized @(8,0)
GPGPU-Sim uArch: core:  7, cta: 7 initialized @(8,0)
GPGPU-Sim uArch: core:  8, cta: 7 initialized @(8,0)
GPGPU-Sim uArch: core:  9, cta: 7 initialized @(8,0)
GPGPU-Sim uArch: core: 10, cta: 7 initialized @(8,0)
GPGPU-Sim uArch: core: 11, cta: 7 initialized @(8,0)
GPGPU-Sim uArch: core: 12, cta: 7 initialized @(8,0)
GPGPU-Sim uArch: core: 13, cta: 7 initialized @(8,0)
GPGPU-Sim uArch: core: 14, cta: 7 initialized @(8,0)
GPGPU-Sim uArch: core:  0, cta: 7 initialized @(8,0)
GPGPU-Sim uArch: cycles simulated: 500  inst.: 70695 (ipc=141.4) sim_rate=70695 (inst/sec) elapsed = 0:0:00:01 / Tue Apr 16 16:55:28 2019
GPGPU-Sim PTX: 100000 instructions simulated : ctaid=(2,0,0) tid=(0,12,0)
GPGPU-Sim PTX: 200000 instructions simulated : ctaid=(5,7,0) tid=(8,5,0)
GPGPU-Sim uArch: cycles simulated: 1000  inst.: 244529 (ipc=244.5) sim_rate=122264 (inst/sec) elapsed = 0:0:00:02 / Tue Apr 16 16:55:29 2019
GPGPU-Sim PTX: 300000 instructions simulated : ctaid=(3,13,0) tid=(9,12,0)
GPGPU-Sim PTX: 400000 instructions simulated : ctaid=(0,0,0) tid=(9,5,0)
GPGPU-Sim uArch: cycles simulated: 1500  inst.: 491791 (ipc=327.9) sim_rate=163930 (inst/sec) elapsed = 0:0:00:03 / Tue Apr 16 16:55:30 2019
GPGPU-Sim PTX: 500000 instructions simulated : ctaid=(2,0,0) tid=(3,7,0)
GPGPU-Sim uArch: cycles simulated: 2000  inst.: 510383 (ipc=255.2) sim_rate=127595 (inst/sec) elapsed = 0:0:00:04 / Tue Apr 16 16:55:31 2019
GPGPU-Sim PTX: 600000 instructions simulated : ctaid=(3,2,0) tid=(12,2,0)
GPGPU-Sim uArch: cycles simulated: 3000  inst.: 612340 (ipc=204.1) sim_rate=122468 (inst/sec) elapsed = 0:0:00:05 / Tue Apr 16 16:55:32 2019
GPGPU-Sim PTX: 700000 instructions simulated : ctaid=(0,10,0) tid=(0,6,0)
GPGPU-Sim PTX: 800000 instructions simulated : ctaid=(5,1,0) tid=(7,0,0)
GPGPU-Sim uArch: cycles simulated: 4000  inst.: 810711 (ipc=202.7) sim_rate=135118 (inst/sec) elapsed = 0:0:00:06 / Tue Apr 16 16:55:33 2019
GPGPU-Sim PTX: 900000 instructions simulated : ctaid=(1,0,0) tid=(0,3,0)
GPGPU-Sim PTX: 1000000 instructions simulated : ctaid=(2,8,0) tid=(6,10,0)
GPGPU-Sim uArch: cycles simulated: 5000  inst.: 1050139 (ipc=210.0) sim_rate=150019 (inst/sec) elapsed = 0:0:00:07 / Tue Apr 16 16:55:34 2019
GPGPU-Sim PTX: 1100000 instructions simulated : ctaid=(1,5,0) tid=(3,7,0)
GPGPU-Sim uArch: cycles simulated: 5500  inst.: 1178899 (ipc=214.3) sim_rate=147362 (inst/sec) elapsed = 0:0:00:08 / Tue Apr 16 16:55:35 2019
GPGPU-Sim PTX: 1200000 instructions simulated : ctaid=(5,2,0) tid=(1,5,0)
GPGPU-Sim PTX: 1300000 instructions simulated : ctaid=(5,2,0) tid=(10,4,0)
GPGPU-Sim PTX: 1400000 instructions simulated : ctaid=(5,1,0) tid=(5,5,0)
GPGPU-Sim uArch: cycles simulated: 6500  inst.: 1410063 (ipc=216.9) sim_rate=156673 (inst/sec) elapsed = 0:0:00:09 / Tue Apr 16 16:55:36 2019
GPGPU-Sim PTX: 1500000 instructions simulated : ctaid=(2,2,0) tid=(8,12,0)
GPGPU-Sim PTX: 1600000 instructions simulated : ctaid=(1,5,0) tid=(11,0,0)
GPGPU-Sim uArch: cycles simulated: 7500  inst.: 1645801 (ipc=219.4) sim_rate=164580 (inst/sec) elapsed = 0:0:00:10 / Tue Apr 16 16:55:37 2019
GPGPU-Sim PTX: 1700000 instructions simulated : ctaid=(5,6,0) tid=(11,9,0)
GPGPU-Sim uArch: cycles simulated: 8000  inst.: 1760937 (ipc=220.1) sim_rate=160085 (inst/sec) elapsed = 0:0:00:11 / Tue Apr 16 16:55:38 2019
GPGPU-Sim PTX: 1800000 instructions simulated : ctaid=(1,5,0) tid=(8,7,0)
GPGPU-Sim PTX: 1900000 instructions simulated : ctaid=(3,5,0) tid=(3,0,0)
GPGPU-Sim PTX: 2000000 instructions simulated : ctaid=(0,8,0) tid=(3,4,0)
GPGPU-Sim uArch: cycles simulated: 9000  inst.: 1997978 (ipc=222.0) sim_rate=166498 (inst/sec) elapsed = 0:0:00:12 / Tue Apr 16 16:55:39 2019
GPGPU-Sim PTX: 2100000 instructions simulated : ctaid=(3,3,0) tid=(12,6,0)
GPGPU-Sim PTX: 2200000 instructions simulated : ctaid=(4,5,0) tid=(1,4,0)
GPGPU-Sim uArch: cycles simulated: 10000  inst.: 2202784 (ipc=220.3) sim_rate=169444 (inst/sec) elapsed = 0:0:00:13 / Tue Apr 16 16:55:40 2019
GPGPU-Sim PTX: 2300000 instructions simulated : ctaid=(5,3,0) tid=(9,7,0)
GPGPU-Sim PTX: 2400000 instructions simulated : ctaid=(5,3,0) tid=(9,3,0)
GPGPU-Sim uArch: cycles simulated: 11000  inst.: 2421817 (ipc=220.2) sim_rate=172986 (inst/sec) elapsed = 0:0:00:14 / Tue Apr 16 16:55:41 2019
GPGPU-Sim PTX: 2500000 instructions simulated : ctaid=(0,12,0) tid=(0,2,0)
GPGPU-Sim uArch: cycles simulated: 11500  inst.: 2532297 (ipc=220.2) sim_rate=168819 (inst/sec) elapsed = 0:0:00:15 / Tue Apr 16 16:55:42 2019
GPGPU-Sim PTX: 2600000 instructions simulated : ctaid=(3,1,0) tid=(11,8,0)
GPGPU-Sim PTX: 2700000 instructions simulated : ctaid=(5,2,0) tid=(12,9,0)
GPGPU-Sim uArch: cycles simulated: 12500  inst.: 2736839 (ipc=218.9) sim_rate=171052 (inst/sec) elapsed = 0:0:00:16 / Tue Apr 16 16:55:43 2019
GPGPU-Sim PTX: 2800000 instructions simulated : ctaid=(3,2,0) tid=(12,8,0)
GPGPU-Sim PTX: 2900000 instructions simulated : ctaid=(1,6,0) tid=(10,4,0)
GPGPU-Sim uArch: cycles simulated: 13500  inst.: 2959150 (ipc=219.2) sim_rate=174067 (inst/sec) elapsed = 0:0:00:17 / Tue Apr 16 16:55:44 2019
GPGPU-Sim PTX: 3000000 instructions simulated : ctaid=(0,0,0) tid=(0,5,0)
GPGPU-Sim uArch: cycles simulated: 14000  inst.: 3065510 (ipc=219.0) sim_rate=170306 (inst/sec) elapsed = 0:0:00:18 / Tue Apr 16 16:55:45 2019
GPGPU-Sim PTX: 3100000 instructions simulated : ctaid=(1,8,0) tid=(10,0,0)
GPGPU-Sim PTX: 3200000 instructions simulated : ctaid=(0,1,0) tid=(2,7,0)
GPGPU-Sim uArch: cycles simulated: 15000  inst.: 3250976 (ipc=216.7) sim_rate=171104 (inst/sec) elapsed = 0:0:00:19 / Tue Apr 16 16:55:46 2019
GPGPU-Sim PTX: 3300000 instructions simulated : ctaid=(4,3,0) tid=(11,7,0)
GPGPU-Sim PTX: 3400000 instructions simulated : ctaid=(4,4,0) tid=(3,5,0)
GPGPU-Sim uArch: cycles simulated: 16000  inst.: 3463992 (ipc=216.5) sim_rate=173199 (inst/sec) elapsed = 0:0:00:20 / Tue Apr 16 16:55:47 2019
GPGPU-Sim PTX: 3500000 instructions simulated : ctaid=(3,14,0) tid=(1,7,0)
GPGPU-Sim uArch: Shader 14 finished CTA #0 (16360,0), 7 CTAs running
GPGPU-Sim uArch: core: 14, cta: 0 initialized @(16361,0)
GPGPU-Sim uArch: cycles simulated: 16500  inst.: 3573514 (ipc=216.6) sim_rate=170167 (inst/sec) elapsed = 0:0:00:21 / Tue Apr 16 16:55:48 2019
GPGPU-Sim PTX: 3600000 instructions simulated : ctaid=(0,12,0) tid=(3,6,0)
GPGPU-Sim uArch: Shader 1 finished CTA #0 (16786,0), 7 CTAs running
GPGPU-Sim uArch: core:  1, cta: 0 initialized @(16787,0)
GPGPU-Sim uArch: Shader 3 finished CTA #0 (17011,0), 7 CTAs running
GPGPU-Sim uArch: core:  3, cta: 0 initialized @(17012,0)
GPGPU-Sim PTX: 3700000 instructions simulated : ctaid=(3,1,0) tid=(12,8,0)
GPGPU-Sim uArch: Shader 2 finished CTA #0 (17456,0), 7 CTAs running
GPGPU-Sim uArch: core:  2, cta: 0 initialized @(17457,0)
GPGPU-Sim PTX: 3800000 instructions simulated : ctaid=(2,6,0) tid=(0,10,0)
GPGPU-Sim uArch: Shader 13 finished CTA #0 (17490,0), 7 CTAs running
GPGPU-Sim uArch: core: 13, cta: 0 initialized @(17491,0)
GPGPU-Sim uArch: cycles simulated: 17500  inst.: 3792376 (ipc=216.7) sim_rate=172380 (inst/sec) elapsed = 0:0:00:22 / Tue Apr 16 16:55:49 2019
GPGPU-Sim uArch: Shader 10 finished CTA #0 (17715,0), 7 CTAs running
GPGPU-Sim uArch: core: 10, cta: 0 initialized @(17716,0)
GPGPU-Sim uArch: Shader 0 finished CTA #0 (17812,0), 7 CTAs running
GPGPU-Sim uArch: core:  0, cta: 0 initialized @(17813,0)
GPGPU-Sim uArch: Shader 5 finished CTA #0 (17874,0), 7 CTAs running
GPGPU-Sim uArch: core:  5, cta: 0 initialized @(17875,0)
GPGPU-Sim PTX: 3900000 instructions simulated : ctaid=(5,6,0) tid=(6,6,0)
GPGPU-Sim uArch: Shader 4 finished CTA #0 (17993,0), 7 CTAs running
GPGPU-Sim uArch: core:  4, cta: 0 initialized @(17994,0)
GPGPU-Sim uArch: cycles simulated: 18000  inst.: 3900090 (ipc=216.7) sim_rate=169569 (inst/sec) elapsed = 0:0:00:23 / Tue Apr 16 16:55:50 2019
GPGPU-Sim uArch: Shader 6 finished CTA #0 (18408,0), 7 CTAs running
GPGPU-Sim uArch: core:  6, cta: 0 initialized @(18409,0)
GPGPU-Sim PTX: 4000000 instructions simulated : ctaid=(3,8,0) tid=(10,10,0)
GPGPU-Sim uArch: Shader 11 finished CTA #0 (18833,0), 7 CTAs running
GPGPU-Sim uArch: core: 11, cta: 0 initialized @(18834,0)
GPGPU-Sim PTX: 4100000 instructions simulated : ctaid=(3,7,0) tid=(3,12,0)
GPGPU-Sim uArch: cycles simulated: 19000  inst.: 4102731 (ipc=215.9) sim_rate=170947 (inst/sec) elapsed = 0:0:00:24 / Tue Apr 16 16:55:51 2019
GPGPU-Sim uArch: Shader 12 finished CTA #0 (19333,0), 7 CTAs running
GPGPU-Sim uArch: core: 12, cta: 0 initialized @(19334,0)
GPGPU-Sim PTX: 4200000 instructions simulated : ctaid=(3,10,0) tid=(10,0,0)
GPGPU-Sim PTX: 4300000 instructions simulated : ctaid=(1,4,0) tid=(7,12,0)
GPGPU-Sim uArch: Shader 5 finished CTA #1 (19988,0), 7 CTAs running
GPGPU-Sim uArch: core:  5, cta: 1 initialized @(19989,0)
GPGPU-Sim uArch: cycles simulated: 20000  inst.: 4338268 (ipc=216.9) sim_rate=173530 (inst/sec) elapsed = 0:0:00:25 / Tue Apr 16 16:55:52 2019
GPGPU-Sim uArch: Shader 14 finished CTA #1 (20002,0), 7 CTAs running
GPGPU-Sim uArch: core: 14, cta: 1 initialized @(20003,0)
GPGPU-Sim uArch: Shader 3 finished CTA #1 (20041,0), 7 CTAs running
GPGPU-Sim uArch: core:  3, cta: 1 initialized @(20042,0)
GPGPU-Sim uArch: Shader 9 finished CTA #0 (20049,0), 7 CTAs running
GPGPU-Sim uArch: core:  9, cta: 0 initialized @(20050,0)
GPGPU-Sim uArch: Shader 4 finished CTA #1 (20110,0), 7 CTAs running
GPGPU-Sim uArch: core:  4, cta: 1 initialized @(20111,0)
GPGPU-Sim PTX: 4400000 instructions simulated : ctaid=(4,19,0) tid=(2,7,0)
GPGPU-Sim uArch: Shader 6 finished CTA #1 (20228,0), 7 CTAs running
GPGPU-Sim uArch: core:  6, cta: 1 initialized @(20229,0)
GPGPU-Sim uArch: Shader 8 finished CTA #0 (20474,0), 7 CTAs running
GPGPU-Sim uArch: core:  8, cta: 0 initialized @(20475,0)
GPGPU-Sim uArch: cycles simulated: 20500  inst.: 4460381 (ipc=217.6) sim_rate=171553 (inst/sec) elapsed = 0:0:00:26 / Tue Apr 16 16:55:53 2019
GPGPU-Sim uArch: Shader 13 finished CTA #1 (20524,0), 7 CTAs running
GPGPU-Sim uArch: core: 13, cta: 1 initialized @(20525,0)
GPGPU-Sim uArch: Shader 2 finished CTA #1 (20584,0), 7 CTAs running
GPGPU-Sim uArch: core:  2, cta: 1 initialized @(20585,0)
GPGPU-Sim PTX: 4500000 instructions simulated : ctaid=(2,7,0) tid=(9,2,0)
GPGPU-Sim uArch: Shader 10 finished CTA #1 (20688,0), 7 CTAs running
GPGPU-Sim uArch: core: 10, cta: 1 initialized @(20689,0)
GPGPU-Sim uArch: Shader 1 finished CTA #1 (20825,0), 7 CTAs running
GPGPU-Sim uArch: core:  1, cta: 1 initialized @(20826,0)
GPGPU-Sim uArch: cycles simulated: 21000  inst.: 4561622 (ipc=217.2) sim_rate=168948 (inst/sec) elapsed = 0:0:00:27 / Tue Apr 16 16:55:54 2019
GPGPU-Sim PTX: 4600000 instructions simulated : ctaid=(1,10,0) tid=(12,10,0)
GPGPU-Sim uArch: Shader 0 finished CTA #1 (21350,0), 7 CTAs running
GPGPU-Sim uArch: core:  0, cta: 1 initialized @(21351,0)
GPGPU-Sim uArch: Shader 7 finished CTA #0 (21573,0), 7 CTAs running
GPGPU-Sim uArch: core:  7, cta: 0 initialized @(21574,0)
GPGPU-Sim PTX: 4700000 instructions simulated : ctaid=(2,12,0) tid=(0,3,0)
GPGPU-Sim uArch: Shader 11 finished CTA #1 (21729,0), 7 CTAs running
GPGPU-Sim uArch: core: 11, cta: 1 initialized @(21730,0)
GPGPU-Sim uArch: cycles simulated: 22000  inst.: 4775116 (ipc=217.1) sim_rate=170539 (inst/sec) elapsed = 0:0:00:28 / Tue Apr 16 16:55:55 2019
GPGPU-Sim PTX: 4800000 instructions simulated : ctaid=(2,4,0) tid=(6,9,0)
GPGPU-Sim PTX: 4900000 instructions simulated : ctaid=(4,12,0) tid=(1,7,0)
GPGPU-Sim PTX: 5000000 instructions simulated : ctaid=(5,12,0) tid=(8,1,0)
GPGPU-Sim uArch: cycles simulated: 23000  inst.: 4991523 (ipc=217.0) sim_rate=172121 (inst/sec) elapsed = 0:0:00:29 / Tue Apr 16 16:55:56 2019
GPGPU-Sim uArch: Shader 14 finished CTA #2 (23330,0), 7 CTAs running
GPGPU-Sim uArch: core: 14, cta: 2 initialized @(23331,0)
GPGPU-Sim uArch: Shader 12 finished CTA #1 (23336,0), 7 CTAs running
GPGPU-Sim uArch: core: 12, cta: 1 initialized @(23337,0)
GPGPU-Sim uArch: Shader 3 finished CTA #2 (23378,0), 7 CTAs running
GPGPU-Sim uArch: core:  3, cta: 2 initialized @(23379,0)
GPGPU-Sim PTX: 5100000 instructions simulated : ctaid=(4,14,0) tid=(1,7,0)
GPGPU-Sim uArch: cycles simulated: 23500  inst.: 5101211 (ipc=217.1) sim_rate=170040 (inst/sec) elapsed = 0:0:00:30 / Tue Apr 16 16:55:57 2019
GPGPU-Sim uArch: Shader 1 finished CTA #2 (23695,0), 7 CTAs running
GPGPU-Sim uArch: core:  1, cta: 2 initialized @(23696,0)
GPGPU-Sim PTX: 5200000 instructions simulated : ctaid=(5,5,0) tid=(1,8,0)
GPGPU-Sim uArch: Shader 2 finished CTA #2 (24252,0), 7 CTAs running
GPGPU-Sim uArch: core:  2, cta: 2 initialized @(24253,0)
GPGPU-Sim PTX: 5300000 instructions simulated : ctaid=(2,20,0) tid=(12,10,0)
GPGPU-Sim uArch: cycles simulated: 24500  inst.: 5316622 (ipc=217.0) sim_rate=171503 (inst/sec) elapsed = 0:0:00:31 / Tue Apr 16 16:55:58 2019
GPGPU-Sim uArch: Shader 13 finished CTA #2 (24693,0), 7 CTAs running
GPGPU-Sim uArch: core: 13, cta: 2 initialized @(24694,0)
GPGPU-Sim PTX: 5400000 instructions simulated : ctaid=(4,13,0) tid=(7,3,0)
GPGPU-Sim uArch: Shader 5 finished CTA #2 (24862,0), 7 CTAs running
GPGPU-Sim uArch: core:  5, cta: 2 initialized @(24863,0)
GPGPU-Sim uArch: Shader 0 finished CTA #2 (24929,0), 7 CTAs running
GPGPU-Sim uArch: core:  0, cta: 2 initialized @(24930,0)
GPGPU-Sim uArch: cycles simulated: 25000  inst.: 5441947 (ipc=217.7) sim_rate=170060 (inst/sec) elapsed = 0:0:00:32 / Tue Apr 16 16:55:59 2019
GPGPU-Sim uArch: Shader 6 finished CTA #2 (25079,0), 7 CTAs running
GPGPU-Sim uArch: core:  6, cta: 2 initialized @(25080,0)
GPGPU-Sim PTX: 5500000 instructions simulated : ctaid=(1,13,0) tid=(7,7,0)
GPGPU-Sim PTX: 5600000 instructions simulated : ctaid=(3,17,0) tid=(11,6,0)
GPGPU-Sim uArch: cycles simulated: 26000  inst.: 5653929 (ipc=217.5) sim_rate=171331 (inst/sec) elapsed = 0:0:00:33 / Tue Apr 16 16:56:00 2019
GPGPU-Sim uArch: Shader 4 finished CTA #2 (26137,0), 7 CTAs running
GPGPU-Sim uArch: Shader 11 finished CTA #2 (26137,0), 7 CTAs running
GPGPU-Sim uArch: core: 11, cta: 2 initialized @(26138,0)
GPGPU-Sim uArch: core:  4, cta: 2 initialized @(26138,0)
GPGPU-Sim PTX: 5700000 instructions simulated : ctaid=(3,11,0) tid=(7,11,0)
GPGPU-Sim uArch: Shader 9 finished CTA #1 (26209,0), 7 CTAs running
GPGPU-Sim uArch: core:  9, cta: 1 initialized @(26210,0)
GPGPU-Sim uArch: cycles simulated: 26500  inst.: 5754056 (ipc=217.1) sim_rate=169236 (inst/sec) elapsed = 0:0:00:34 / Tue Apr 16 16:56:01 2019
GPGPU-Sim PTX: 5800000 instructions simulated : ctaid=(4,19,0) tid=(11,6,0)
GPGPU-Sim PTX: 5900000 instructions simulated : ctaid=(3,20,0) tid=(10,6,0)
GPGPU-Sim uArch: cycles simulated: 27500  inst.: 5951133 (ipc=216.4) sim_rate=170032 (inst/sec) elapsed = 0:0:00:35 / Tue Apr 16 16:56:02 2019
GPGPU-Sim PTX: 6000000 instructions simulated : ctaid=(4,19,0) tid=(11,5,0)
GPGPU-Sim PTX: 6100000 instructions simulated : ctaid=(5,13,0) tid=(2,0,0)
GPGPU-Sim uArch: Shader 10 finished CTA #2 (28173,0), 7 CTAs running
GPGPU-Sim uArch: core: 10, cta: 2 initialized @(28174,0)
GPGPU-Sim uArch: cycles simulated: 28500  inst.: 6157225 (ipc=216.0) sim_rate=171034 (inst/sec) elapsed = 0:0:00:36 / Tue Apr 16 16:56:03 2019
GPGPU-Sim PTX: 6200000 instructions simulated : ctaid=(1,18,0) tid=(8,4,0)
GPGPU-Sim uArch: Shader 8 finished CTA #1 (28722,0), 7 CTAs running
GPGPU-Sim uArch: core:  8, cta: 1 initialized @(28723,0)
GPGPU-Sim uArch: cycles simulated: 29000  inst.: 6266634 (ipc=216.1) sim_rate=169368 (inst/sec) elapsed = 0:0:00:37 / Tue Apr 16 16:56:04 2019
GPGPU-Sim PTX: 6300000 instructions simulated : ctaid=(4,19,0) tid=(4,11,0)
GPGPU-Sim uArch: Shader 13 finished CTA #3 (29302,0), 7 CTAs running
GPGPU-Sim uArch: core: 13, cta: 3 initialized @(29303,0)
GPGPU-Sim PTX: 6400000 instructions simulated : ctaid=(1,16,0) tid=(8,1,0)
GPGPU-Sim uArch: Shader 12 finished CTA #2 (29564,0), 7 CTAs running
GPGPU-Sim uArch: core: 12, cta: 2 initialized @(29565,0)
GPGPU-Sim uArch: Shader 14 finished CTA #3 (29872,0), 7 CTAs running
GPGPU-Sim uArch: core: 14, cta: 3 initialized @(29873,0)
GPGPU-Sim PTX: 6500000 instructions simulated : ctaid=(0,16,0) tid=(11,11,0)
GPGPU-Sim uArch: cycles simulated: 30000  inst.: 6494675 (ipc=216.5) sim_rate=170912 (inst/sec) elapsed = 0:0:00:38 / Tue Apr 16 16:56:05 2019
GPGPU-Sim PTX: 6600000 instructions simulated : ctaid=(5,8,0) tid=(10,4,0)
GPGPU-Sim uArch: cycles simulated: 30500  inst.: 6625229 (ipc=217.2) sim_rate=169877 (inst/sec) elapsed = 0:0:00:39 / Tue Apr 16 16:56:06 2019
GPGPU-Sim uArch: Shader 7 finished CTA #1 (30573,0), 7 CTAs running
GPGPU-Sim uArch: core:  7, cta: 1 initialized @(30574,0)
GPGPU-Sim PTX: 6700000 instructions simulated : ctaid=(5,14,0) tid=(9,12,0)
GPGPU-Sim uArch: Shader 1 finished CTA #3 (30786,0), 7 CTAs running
GPGPU-Sim uArch: core:  1, cta: 3 initialized @(30787,0)
GPGPU-Sim PTX: 6800000 instructions simulated : ctaid=(3,16,0) tid=(2,9,0)
GPGPU-Sim uArch: Shader 10 finished CTA #3 (31342,0), 7 CTAs running
GPGPU-Sim uArch: core: 10, cta: 3 initialized @(31343,0)
GPGPU-Sim uArch: Shader 5 finished CTA #3 (31350,0), 7 CTAs running
GPGPU-Sim uArch: core:  5, cta: 3 initialized @(31351,0)
GPGPU-Sim uArch: Shader 3 finished CTA #3 (31408,0), 7 CTAs running
GPGPU-Sim uArch: core:  3, cta: 3 initialized @(31409,0)
GPGPU-Sim uArch: Shader 0 finished CTA #3 (31418,0), 7 CTAs running
GPGPU-Sim uArch: Shader 4 finished CTA #3 (31424,0), 7 CTAs running
GPGPU-Sim PTX: 6900000 instructions simulated : ctaid=(3,19,0) tid=(11,0,0)
GPGPU-Sim uArch: cycles simulated: 31500  inst.: 6894249 (ipc=218.9) sim_rate=172356 (inst/sec) elapsed = 0:0:00:40 / Tue Apr 16 16:56:07 2019
GPGPU-Sim PTX: 7000000 instructions simulated : ctaid=(3,17,0) tid=(6,5,0)
GPGPU-Sim uArch: cycles simulated: 32000  inst.: 7028596 (ipc=219.6) sim_rate=171429 (inst/sec) elapsed = 0:0:00:41 / Tue Apr 16 16:56:08 2019
GPGPU-Sim PTX: 7100000 instructions simulated : ctaid=(2,14,0) tid=(1,3,0)
GPGPU-Sim PTX: 7200000 instructions simulated : ctaid=(5,17,0) tid=(4,1,0)
GPGPU-Sim uArch: Shader 2 finished CTA #3 (32663,0), 7 CTAs running
GPGPU-Sim PTX: 7300000 instructions simulated : ctaid=(1,20,0) tid=(9,10,0)
GPGPU-Sim uArch: cycles simulated: 33000  inst.: 7286084 (ipc=220.8) sim_rate=173478 (inst/sec) elapsed = 0:0:00:42 / Tue Apr 16 16:56:09 2019
GPGPU-Sim uArch: Shader 14 finished CTA #4 (33056,0), 7 CTAs running
GPGPU-Sim PTX: 7400000 instructions simulated : ctaid=(3,11,0) tid=(7,12,0)
GPGPU-Sim uArch: cycles simulated: 33500  inst.: 7406537 (ipc=221.1) sim_rate=172245 (inst/sec) elapsed = 0:0:00:43 / Tue Apr 16 16:56:10 2019
GPGPU-Sim uArch: Shader 11 finished CTA #3 (33618,0), 7 CTAs running
GPGPU-Sim PTX: 7500000 instructions simulated : ctaid=(1,20,0) tid=(7,0,0)
GPGPU-Sim PTX: 7600000 instructions simulated : ctaid=(2,21,0) tid=(12,7,0)
GPGPU-Sim uArch: Shader 13 finished CTA #4 (34160,0), 7 CTAs running
GPGPU-Sim uArch: Shader 0 finished CTA #4 (34210,0), 6 CTAs running
GPGPU-Sim uArch: Shader 9 finished CTA #2 (34307,0), 7 CTAs running
GPGPU-Sim uArch: Shader 6 finished CTA #3 (34489,0), 7 CTAs running
GPGPU-Sim uArch: cycles simulated: 34500  inst.: 7673052 (ipc=222.4) sim_rate=174387 (inst/sec) elapsed = 0:0:00:44 / Tue Apr 16 16:56:11 2019
GPGPU-Sim PTX: 7700000 instructions simulated : ctaid=(2,9,0) tid=(5,9,0)
GPGPU-Sim uArch: Shader 12 finished CTA #3 (34798,0), 7 CTAs running
GPGPU-Sim PTX: 7800000 instructions simulated : ctaid=(1,25,0) tid=(2,7,0)
GPGPU-Sim uArch: cycles simulated: 35000  inst.: 7795612 (ipc=222.7) sim_rate=173235 (inst/sec) elapsed = 0:0:00:45 / Tue Apr 16 16:56:12 2019
GPGPU-Sim uArch: Shader 8 finished CTA #2 (35179,0), 7 CTAs running
GPGPU-Sim PTX: 7900000 instructions simulated : ctaid=(0,19,0) tid=(4,0,0)
GPGPU-Sim uArch: Shader 3 finished CTA #4 (35433,0), 7 CTAs running
GPGPU-Sim PTX: 8000000 instructions simulated : ctaid=(0,21,0) tid=(0,6,0)
GPGPU-Sim PTX: 8100000 instructions simulated : ctaid=(4,18,0) tid=(3,2,0)
GPGPU-Sim uArch: cycles simulated: 36000  inst.: 8088445 (ipc=224.7) sim_rate=175835 (inst/sec) elapsed = 0:0:00:46 / Tue Apr 16 16:56:13 2019
GPGPU-Sim uArch: Shader 10 finished CTA #4 (36239,0), 7 CTAs running
GPGPU-Sim uArch: Shader 1 finished CTA #4 (36242,0), 7 CTAs running
GPGPU-Sim PTX: 8200000 instructions simulated : ctaid=(4,11,0) tid=(7,7,0)
GPGPU-Sim uArch: cycles simulated: 36500  inst.: 8229172 (ipc=225.5) sim_rate=175088 (inst/sec) elapsed = 0:0:00:47 / Tue Apr 16 16:56:14 2019
GPGPU-Sim uArch: Shader 4 finished CTA #4 (36617,0), 6 CTAs running
GPGPU-Sim PTX: 8300000 instructions simulated : ctaid=(0,11,0) tid=(9,8,0)
GPGPU-Sim PTX: 8400000 instructions simulated : ctaid=(0,16,0) tid=(4,10,0)
GPGPU-Sim uArch: Shader 0 finished CTA #5 (37270,0), 5 CTAs running
GPGPU-Sim PTX: 8500000 instructions simulated : ctaid=(0,13,0) tid=(6,4,0)
GPGPU-Sim uArch: Shader 5 finished CTA #4 (37432,0), 7 CTAs running
GPGPU-Sim uArch: Shader 13 finished CTA #5 (37446,0), 6 CTAs running
GPGPU-Sim uArch: Shader 7 finished CTA #2 (37494,0), 7 CTAs running
GPGPU-Sim uArch: cycles simulated: 37500  inst.: 8557142 (ipc=228.2) sim_rate=178273 (inst/sec) elapsed = 0:0:00:48 / Tue Apr 16 16:56:15 2019
GPGPU-Sim PTX: 8600000 instructions simulated : ctaid=(2,20,0) tid=(6,1,0)
GPGPU-Sim uArch: Shader 2 finished CTA #4 (37707,0), 6 CTAs running
GPGPU-Sim PTX: 8700000 instructions simulated : ctaid=(2,15,0) tid=(8,9,0)
GPGPU-Sim uArch: cycles simulated: 38000  inst.: 8722263 (ipc=229.5) sim_rate=178005 (inst/sec) elapsed = 0:0:00:49 / Tue Apr 16 16:56:16 2019
GPGPU-Sim uArch: Shader 6 finished CTA #4 (38097,0), 6 CTAs running
GPGPU-Sim PTX: 8800000 instructions simulated : ctaid=(4,22,0) tid=(6,1,0)
GPGPU-Sim uArch: Shader 0 finished CTA #6 (38298,0), 4 CTAs running
GPGPU-Sim PTX: 8900000 instructions simulated : ctaid=(3,25,0) tid=(0,7,0)
GPGPU-Sim uArch: Shader 0 finished CTA #7 (38541,0), 3 CTAs running
GPGPU-Sim uArch: Shader 14 finished CTA #5 (38765,0), 6 CTAs running
GPGPU-Sim uArch: Shader 10 finished CTA #5 (38769,0), 6 CTAs running
GPGPU-Sim PTX: 9000000 instructions simulated : ctaid=(3,15,0) tid=(8,12,0)
GPGPU-Sim uArch: cycles simulated: 39000  inst.: 9019575 (ipc=231.3) sim_rate=180391 (inst/sec) elapsed = 0:0:00:50 / Tue Apr 16 16:56:17 2019
GPGPU-Sim uArch: Shader 11 finished CTA #4 (39035,0), 6 CTAs running
GPGPU-Sim uArch: Shader 5 finished CTA #5 (39068,0), 6 CTAs running
GPGPU-Sim PTX: 9100000 instructions simulated : ctaid=(5,15,0) tid=(10,8,0)
GPGPU-Sim uArch: Shader 4 finished CTA #5 (39225,0), 5 CTAs running
GPGPU-Sim uArch: Shader 1 finished CTA #5 (39390,0), 6 CTAs running
GPGPU-Sim PTX: 9200000 instructions simulated : ctaid=(0,26,0) tid=(4,11,0)
GPGPU-Sim uArch: cycles simulated: 39500  inst.: 9185982 (ipc=232.6) sim_rate=180117 (inst/sec) elapsed = 0:0:00:51 / Tue Apr 16 16:56:18 2019
GPGPU-Sim PTX: 9300000 instructions simulated : ctaid=(5,18,0) tid=(3,6,0)
GPGPU-Sim uArch: Shader 12 finished CTA #4 (39967,0), 6 CTAs running
GPGPU-Sim PTX: 9400000 instructions simulated : ctaid=(1,15,0) tid=(7,7,0)
GPGPU-Sim uArch: Shader 4 finished CTA #6 (40119,0), 4 CTAs running
GPGPU-Sim uArch: Shader 6 finished CTA #5 (40309,0), 5 CTAs running
GPGPU-Sim PTX: 9500000 instructions simulated : ctaid=(4,23,0) tid=(1,8,0)
GPGPU-Sim uArch: cycles simulated: 40500  inst.: 9496944 (ipc=234.5) sim_rate=182633 (inst/sec) elapsed = 0:0:00:52 / Tue Apr 16 16:56:19 2019
GPGPU-Sim PTX: 9600000 instructions simulated : ctaid=(2,24,0) tid=(3,5,0)
GPGPU-Sim uArch: Shader 13 finished CTA #6 (40777,0), 5 CTAs running
GPGPU-Sim uArch: Shader 11 finished CTA #5 (40903,0), 5 CTAs running
GPGPU-Sim uArch: Shader 14 finished CTA #6 (40939,0), 5 CTAs running
GPGPU-Sim PTX: 9700000 instructions simulated : ctaid=(0,11,0) tid=(7,3,0)
GPGPU-Sim uArch: cycles simulated: 41000  inst.: 9670189 (ipc=235.9) sim_rate=182456 (inst/sec) elapsed = 0:0:00:53 / Tue Apr 16 16:56:20 2019
GPGPU-Sim uArch: Shader 10 finished CTA #6 (41134,0), 5 CTAs running
GPGPU-Sim uArch: Shader 9 finished CTA #3 (41227,0), 6 CTAs running
GPGPU-Sim PTX: 9800000 instructions simulated : ctaid=(5,20,0) tid=(1,8,0)
GPGPU-Sim uArch: Shader 3 finished CTA #5 (41287,0), 6 CTAs running
GPGPU-Sim uArch: Shader 2 finished CTA #5 (41292,0), 5 CTAs running
GPGPU-Sim PTX: 9900000 instructions simulated : ctaid=(5,25,0) tid=(11,1,0)
GPGPU-Sim uArch: Shader 4 finished CTA #7 (41620,0), 3 CTAs running
GPGPU-Sim uArch: Shader 0 finished CTA #0 (41659,0), 2 CTAs running
GPGPU-Sim uArch: Shader 7 finished CTA #3 (41769,0), 6 CTAs running
GPGPU-Sim PTX: 10000000 instructions simulated : ctaid=(2,23,0) tid=(11,1,0)
GPGPU-Sim uArch: Shader 8 finished CTA #3 (41878,0), 6 CTAs running
GPGPU-Sim uArch: Shader 4 finished CTA #0 (41984,0), 2 CTAs running
GPGPU-Sim uArch: cycles simulated: 42000  inst.: 10007013 (ipc=238.3) sim_rate=185315 (inst/sec) elapsed = 0:0:00:54 / Tue Apr 16 16:56:21 2019
GPGPU-Sim uArch: Shader 0 finished CTA #1 (42022,0), 1 CTAs running
GPGPU-Sim uArch: Shader 10 finished CTA #7 (42128,0), 4 CTAs running
GPGPU-Sim PTX: 10100000 instructions simulated : ctaid=(2,23,0) tid=(8,0,0)
GPGPU-Sim uArch: cycles simulated: 42500  inst.: 10162823 (ipc=239.1) sim_rate=184778 (inst/sec) elapsed = 0:0:00:55 / Tue Apr 16 16:56:22 2019
GPGPU-Sim PTX: 10200000 instructions simulated : ctaid=(3,22,0) tid=(1,6,0)
GPGPU-Sim uArch: Shader 1 finished CTA #6 (42696,0), 5 CTAs running
GPGPU-Sim uArch: Shader 3 finished CTA #6 (42736,0), 5 CTAs running
GPGPU-Sim uArch: Shader 5 finished CTA #6 (42751,0), 5 CTAs running
GPGPU-Sim PTX: 10300000 instructions simulated : ctaid=(1,27,0) tid=(9,5,0)
GPGPU-Sim uArch: Shader 13 finished CTA #7 (42897,0), 4 CTAs running
GPGPU-Sim uArch: Shader 11 finished CTA #6 (43052,0), 4 CTAs running
GPGPU-Sim uArch: Shader 0 finished CTA #2 (43120,0), 0 CTAs running
GPGPU-Sim uArch: Shader 0 empty (release kernel 1 '_Z17executeFirstLayerPfS_S_').
GPGPU-Sim PTX: 10400000 instructions simulated : ctaid=(4,23,0) tid=(10,3,0)
GPGPU-Sim uArch: Shader 6 finished CTA #6 (43186,0), 4 CTAs running
GPGPU-Sim uArch: Shader 4 finished CTA #1 (43213,0), 1 CTAs running
GPGPU-Sim PTX: 10500000 instructions simulated : ctaid=(2,19,0) tid=(12,8,0)
GPGPU-Sim uArch: Shader 5 finished CTA #7 (43487,0), 4 CTAs running
GPGPU-Sim uArch: cycles simulated: 43500  inst.: 10482104 (ipc=241.0) sim_rate=187180 (inst/sec) elapsed = 0:0:00:56 / Tue Apr 16 16:56:23 2019
GPGPU-Sim uArch: Shader 14 finished CTA #7 (43645,0), 4 CTAs running
GPGPU-Sim uArch: Shader 10 finished CTA #0 (43664,0), 3 CTAs running
GPGPU-Sim PTX: 10600000 instructions simulated : ctaid=(4,26,0) tid=(4,12,0)
GPGPU-Sim uArch: Shader 12 finished CTA #5 (43874,0), 5 CTAs running
GPGPU-Sim uArch: cycles simulated: 44000  inst.: 10630694 (ipc=241.6) sim_rate=186503 (inst/sec) elapsed = 0:0:00:57 / Tue Apr 16 16:56:24 2019
GPGPU-Sim uArch: Shader 6 finished CTA #7 (44020,0), 3 CTAs running
GPGPU-Sim uArch: Shader 7 finished CTA #4 (44101,0), 5 CTAs running
GPGPU-Sim PTX: 10700000 instructions simulated : ctaid=(5,17,0) tid=(4,12,0)
GPGPU-Sim uArch: Shader 11 finished CTA #7 (44352,0), 3 CTAs running
GPGPU-Sim uArch: Shader 4 finished CTA #2 (44355,0), 0 CTAs running
GPGPU-Sim uArch: Shader 4 empty (release kernel 1 '_Z17executeFirstLayerPfS_S_').
GPGPU-Sim uArch: Shader 6 finished CTA #0 (44359,0), 2 CTAs running
GPGPU-Sim uArch: Shader 10 finished CTA #1 (44371,0), 2 CTAs running
GPGPU-Sim PTX: 10800000 instructions simulated : ctaid=(3,27,0) tid=(6,4,0)
GPGPU-Sim uArch: Shader 2 finished CTA #6 (44673,0), 4 CTAs running
GPGPU-Sim uArch: Shader 9 finished CTA #4 (44767,0), 5 CTAs running
GPGPU-Sim uArch: Shader 14 finished CTA #0 (44772,0), 3 CTAs running
GPGPU-Sim uArch: Shader 1 finished CTA #7 (44784,0), 4 CTAs running
GPGPU-Sim PTX: 10900000 instructions simulated : ctaid=(4,27,0) tid=(10,4,0)
GPGPU-Sim uArch: Shader 11 finished CTA #0 (44888,0), 2 CTAs running
GPGPU-Sim uArch: Shader 5 finished CTA #0 (44903,0), 3 CTAs running
GPGPU-Sim uArch: cycles simulated: 45000  inst.: 10919542 (ipc=242.7) sim_rate=188267 (inst/sec) elapsed = 0:0:00:58 / Tue Apr 16 16:56:25 2019
GPGPU-Sim PTX: 11000000 instructions simulated : ctaid=(0,22,0) tid=(10,8,0)
GPGPU-Sim uArch: Shader 13 finished CTA #0 (45196,0), 3 CTAs running
GPGPU-Sim uArch: Shader 7 finished CTA #5 (45429,0), 4 CTAs running
GPGPU-Sim uArch: Shader 10 finished CTA #2 (45446,0), 1 CTAs running
GPGPU-Sim PTX: 11100000 instructions simulated : ctaid=(1,23,0) tid=(6,12,0)
GPGPU-Sim uArch: Shader 1 finished CTA #0 (45613,0), 3 CTAs running
GPGPU-Sim uArch: Shader 3 finished CTA #7 (45757,0), 4 CTAs running
GPGPU-Sim uArch: Shader 13 finished CTA #1 (45845,0), 2 CTAs running
GPGPU-Sim uArch: Shader 11 finished CTA #1 (45878,0), 1 CTAs running
GPGPU-Sim uArch: Shader 1 finished CTA #1 (45924,0), 2 CTAs running
GPGPU-Sim PTX: 11200000 instructions simulated : ctaid=(0,25,0) tid=(5,7,0)
GPGPU-Sim uArch: Shader 7 finished CTA #6 (45927,0), 3 CTAs running
GPGPU-Sim uArch: Shader 6 finished CTA #1 (45944,0), 1 CTAs running
GPGPU-Sim uArch: cycles simulated: 46000  inst.: 11177140 (ipc=243.0) sim_rate=189443 (inst/sec) elapsed = 0:0:00:59 / Tue Apr 16 16:56:26 2019
GPGPU-Sim uArch: Shader 2 finished CTA #7 (46193,0), 3 CTAs running
GPGPU-Sim uArch: Shader 9 finished CTA #5 (46246,0), 4 CTAs running
GPGPU-Sim uArch: Shader 9 finished CTA #6 (46296,0), 3 CTAs running
GPGPU-Sim uArch: Shader 10 finished CTA #3 (46396,0), 0 CTAs running
GPGPU-Sim uArch: Shader 10 empty (release kernel 1 '_Z17executeFirstLayerPfS_S_').
GPGPU-Sim PTX: 11300000 instructions simulated : ctaid=(4,27,0) tid=(9,9,0)
GPGPU-Sim uArch: Shader 7 finished CTA #7 (46698,0), 2 CTAs running
GPGPU-Sim uArch: Shader 12 finished CTA #6 (46825,0), 4 CTAs running
GPGPU-Sim uArch: Shader 6 finished CTA #2 (46910,0), 0 CTAs running
GPGPU-Sim uArch: Shader 6 empty (release kernel 1 '_Z17executeFirstLayerPfS_S_').
GPGPU-Sim PTX: 11400000 instructions simulated : ctaid=(4,18,0) tid=(5,12,0)
GPGPU-Sim uArch: Shader 11 finished CTA #2 (46967,0), 0 CTAs running
GPGPU-Sim uArch: Shader 11 empty (release kernel 1 '_Z17executeFirstLayerPfS_S_').
GPGPU-Sim uArch: Shader 8 finished CTA #4 (47115,0), 5 CTAs running
GPGPU-Sim uArch: Shader 13 finished CTA #2 (47134,0), 1 CTAs running
GPGPU-Sim uArch: Shader 14 finished CTA #1 (47399,0), 2 CTAs running
GPGPU-Sim uArch: Shader 12 finished CTA #7 (47418,0), 3 CTAs running
GPGPU-Sim uArch: Shader 3 finished CTA #0 (47420,0), 3 CTAs running
GPGPU-Sim uArch: Shader 1 finished CTA #2 (47424,0), 1 CTAs running
GPGPU-Sim uArch: cycles simulated: 47500  inst.: 11451853 (ipc=241.1) sim_rate=190864 (inst/sec) elapsed = 0:0:01:00 / Tue Apr 16 16:56:27 2019
GPGPU-Sim uArch: Shader 9 finished CTA #7 (47560,0), 2 CTAs running
GPGPU-Sim PTX: 11500000 instructions simulated : ctaid=(1,27,0) tid=(12,8,0)
GPGPU-Sim uArch: Shader 7 finished CTA #0 (47780,0), 1 CTAs running
GPGPU-Sim uArch: Shader 13 finished CTA #3 (47840,0), 0 CTAs running
GPGPU-Sim uArch: Shader 13 empty (release kernel 1 '_Z17executeFirstLayerPfS_S_').
GPGPU-Sim uArch: Shader 2 finished CTA #1 (47864,0), 2 CTAs running
GPGPU-Sim uArch: Shader 5 finished CTA #1 (47896,0), 2 CTAs running
GPGPU-Sim uArch: Shader 14 finished CTA #2 (48123,0), 1 CTAs running
GPGPU-Sim uArch: Shader 5 finished CTA #2 (48191,0), 1 CTAs running
GPGPU-Sim uArch: Shader 2 finished CTA #0 (48269,0), 1 CTAs running
GPGPU-Sim uArch: Shader 1 finished CTA #3 (48343,0), 0 CTAs running
GPGPU-Sim uArch: Shader 1 empty (release kernel 1 '_Z17executeFirstLayerPfS_S_').
GPGPU-Sim uArch: Shader 14 finished CTA #3 (48487,0), 0 CTAs running
GPGPU-Sim uArch: Shader 14 empty (release kernel 1 '_Z17executeFirstLayerPfS_S_').
GPGPU-Sim PTX: 11600000 instructions simulated : ctaid=(3,26,0) tid=(2,11,0)
GPGPU-Sim uArch: Shader 12 finished CTA #0 (48568,0), 2 CTAs running
GPGPU-Sim uArch: Shader 9 finished CTA #0 (48599,0), 1 CTAs running
GPGPU-Sim uArch: Shader 7 finished CTA #1 (48849,0), 0 CTAs running
GPGPU-Sim uArch: Shader 7 empty (release kernel 1 '_Z17executeFirstLayerPfS_S_').
GPGPU-Sim uArch: Shader 5 finished CTA #3 (48894,0), 0 CTAs running
GPGPU-Sim uArch: Shader 5 empty (release kernel 1 '_Z17executeFirstLayerPfS_S_').
GPGPU-Sim uArch: Shader 3 finished CTA #1 (49016,0), 2 CTAs running
GPGPU-Sim uArch: Shader 3 finished CTA #2 (49265,0), 1 CTAs running
GPGPU-Sim uArch: Shader 12 finished CTA #1 (49354,0), 1 CTAs running
GPGPU-Sim uArch: Shader 2 finished CTA #2 (49551,0), 0 CTAs running
GPGPU-Sim uArch: Shader 2 empty (release kernel 1 '_Z17executeFirstLayerPfS_S_').
GPGPU-Sim uArch: Shader 9 finished CTA #1 (49676,0), 0 CTAs running
GPGPU-Sim uArch: Shader 9 empty (release kernel 1 '_Z17executeFirstLayerPfS_S_').
GPGPU-Sim uArch: cycles simulated: 50000  inst.: 11636571 (ipc=232.7) sim_rate=190763 (inst/sec) elapsed = 0:0:01:01 / Tue Apr 16 16:56:28 2019
GPGPU-Sim uArch: Shader 8 finished CTA #5 (50065,0), 4 CTAs running
GPGPU-Sim uArch: Shader 3 finished CTA #3 (50379,0), 0 CTAs running
GPGPU-Sim uArch: Shader 3 empty (release kernel 1 '_Z17executeFirstLayerPfS_S_').
GPGPU-Sim uArch: Shader 8 finished CTA #6 (50431,0), 3 CTAs running
GPGPU-Sim uArch: Shader 12 finished CTA #2 (50729,0), 0 CTAs running
GPGPU-Sim uArch: Shader 12 empty (release kernel 1 '_Z17executeFirstLayerPfS_S_').
GPGPU-Sim PTX: 11700000 instructions simulated : ctaid=(4,18,0) tid=(7,8,0)
GPGPU-Sim uArch: Shader 8 finished CTA #7 (51870,0), 2 CTAs running
GPGPU-Sim uArch: Shader 8 finished CTA #0 (52975,0), 1 CTAs running
GPGPU-Sim uArch: Shader 8 finished CTA #1 (53633,0), 0 CTAs running
GPGPU-Sim uArch: Shader 8 empty (release kernel 1 '_Z17executeFirstLayerPfS_S_').
GPGPU-Sim uArch: GPU detected kernel '_Z17executeFirstLayerPfS_S_' finished on shader 8.
kernel_name = _Z17executeFirstLayerPfS_S_ 
kernel_launch_uid = 1 
gpu_sim_cycle = 53634
gpu_sim_insn = 11694074
gpu_ipc =     218.0347
gpu_tot_sim_cycle = 53634
gpu_tot_sim_insn = 11694074
gpu_tot_ipc =     218.0347
gpu_tot_issued_cta = 0
gpu_stall_dramfull = 12151
gpu_stall_icnt2sh    = 252832
gpu_total_sim_rate=191706

========= Core cache stats =========
L1I_cache:
	L1I_total_cache_accesses = 244934
	L1I_total_cache_misses = 1054
	L1I_total_cache_miss_rate = 0.0043
	L1I_total_cache_pending_hits = 0
	L1I_total_cache_reservation_fails = 4140
L1D_cache:
	L1D_cache_core[0]: Access = 9389, Miss = 2662, Miss_rate = 0.284, Pending_hits = 232, Reservation_fails = 26239
	L1D_cache_core[1]: Access = 10268, Miss = 3197, Miss_rate = 0.311, Pending_hits = 291, Reservation_fails = 30829
	L1D_cache_core[2]: Access = 9393, Miss = 3318, Miss_rate = 0.353, Pending_hits = 321, Reservation_fails = 32878
	L1D_cache_core[3]: Access = 10254, Miss = 3503, Miss_rate = 0.342, Pending_hits = 170, Reservation_fails = 32507
	L1D_cache_core[4]: Access = 9357, Miss = 2934, Miss_rate = 0.314, Pending_hits = 418, Reservation_fails = 27734
	L1D_cache_core[5]: Access = 10234, Miss = 3135, Miss_rate = 0.306, Pending_hits = 358, Reservation_fails = 30667
	L1D_cache_core[6]: Access = 9379, Miss = 2934, Miss_rate = 0.313, Pending_hits = 464, Reservation_fails = 30555
	L1D_cache_core[7]: Access = 8538, Miss = 2767, Miss_rate = 0.324, Pending_hits = 609, Reservation_fails = 33099
	L1D_cache_core[8]: Access = 8496, Miss = 3388, Miss_rate = 0.399, Pending_hits = 570, Reservation_fails = 38581
	L1D_cache_core[9]: Access = 8482, Miss = 2936, Miss_rate = 0.346, Pending_hits = 564, Reservation_fails = 34296
	L1D_cache_core[10]: Access = 10200, Miss = 2861, Miss_rate = 0.280, Pending_hits = 483, Reservation_fails = 28478
	L1D_cache_core[11]: Access = 9380, Miss = 3011, Miss_rate = 0.321, Pending_hits = 333, Reservation_fails = 30260
	L1D_cache_core[12]: Access = 9362, Miss = 3557, Miss_rate = 0.380, Pending_hits = 333, Reservation_fails = 34052
	L1D_cache_core[13]: Access = 10216, Miss = 2939, Miss_rate = 0.288, Pending_hits = 430, Reservation_fails = 30512
	L1D_cache_core[14]: Access = 10254, Miss = 3102, Miss_rate = 0.303, Pending_hits = 234, Reservation_fails = 30470
	L1D_total_cache_accesses = 143202
	L1D_total_cache_misses = 46244
	L1D_total_cache_miss_rate = 0.3229
	L1D_total_cache_pending_hits = 5810
	L1D_total_cache_reservation_fails = 471157
	L1D_cache_data_port_util = 0.126
	L1D_cache_fill_port_util = 0.061
L1C_cache:
	L1C_total_cache_accesses = 28224
	L1C_total_cache_misses = 977
	L1C_total_cache_miss_rate = 0.0346
	L1C_total_cache_pending_hits = 0
	L1C_total_cache_reservation_fails = 5136
L1T_cache:
	L1T_total_cache_accesses = 0
	L1T_total_cache_misses = 0
	L1T_total_cache_pending_hits = 0
	L1T_total_cache_reservation_fails = 0

Total_core_cache_stats:
	Total_core_cache_stats_breakdown[GLOBAL_ACC_R][HIT] = 91148
	Total_core_cache_stats_breakdown[GLOBAL_ACC_R][HIT_RESERVED] = 5810
	Total_core_cache_stats_breakdown[GLOBAL_ACC_R][MISS] = 44384
	Total_core_cache_stats_breakdown[GLOBAL_ACC_R][RESERVATION_FAIL] = 467703
	Total_core_cache_stats_breakdown[CONST_ACC_R][HIT] = 27247
	Total_core_cache_stats_breakdown[CONST_ACC_R][MISS] = 977
	Total_core_cache_stats_breakdown[CONST_ACC_R][RESERVATION_FAIL] = 5136
	Total_core_cache_stats_breakdown[GLOBAL_ACC_W][MISS] = 1860
	Total_core_cache_stats_breakdown[GLOBAL_ACC_W][RESERVATION_FAIL] = 3454
	Total_core_cache_stats_breakdown[INST_ACC_R][HIT] = 243880
	Total_core_cache_stats_breakdown[INST_ACC_R][MISS] = 1054
	Total_core_cache_stats_breakdown[INST_ACC_R][RESERVATION_FAIL] = 4140
Shader 0 warp_id issue ditsribution:
warp_id:
0, 1, 2, 3, 4, 5, 6, 7, 8, 9, 10, 11, 12, 13, 14, 15, 16, 17, 18, 19, 20, 21, 22, 23, 24, 25, 26, 27, 28, 29, 30, 31, 32, 33, 34, 35, 36, 37, 38, 39, 40, 41, 42, 43, 44, 45, 46, 47, 
distro:
874, 874, 874, 874, 874, 816, 874, 874, 874, 874, 874, 816, 874, 874, 874, 874, 874, 845, 408, 437, 437, 437, 437, 437, 437, 437, 437, 437, 437, 437, 437, 437, 437, 437, 437, 408, 437, 437, 437, 437, 437, 437, 437, 437, 437, 437, 437, 408, 
gpgpu_n_tot_thrd_icount = 13976224
gpgpu_n_tot_w_icount = 436757
gpgpu_n_stall_shd_mem = 567079
gpgpu_n_mem_read_local = 0
gpgpu_n_mem_write_local = 0
gpgpu_n_mem_read_global = 44384
gpgpu_n_mem_write_global = 1860
gpgpu_n_mem_texture = 0
gpgpu_n_mem_const = 45
gpgpu_n_load_insn  = 1447992
gpgpu_n_store_insn = 28392
gpgpu_n_shmem_insn = 0
gpgpu_n_tex_insn = 0
gpgpu_n_const_mem_insn = 709800
gpgpu_n_param_mem_insn = 85176
gpgpu_n_shmem_bkconflict = 0
gpgpu_n_cache_bkconflict = 0
gpgpu_n_intrawarp_mshr_merge = 0
gpgpu_n_cmem_portconflict = 5136
gpgpu_stall_shd_mem[c_mem][bk_conf] = 5136
gpgpu_stall_shd_mem[c_mem][mshr_rc] = 0
gpgpu_stall_shd_mem[c_mem][icnt_rc] = 0
gpgpu_stall_shd_mem[c_mem][data_port_stall] = 0
gpgpu_stall_shd_mem[t_mem][mshr_rc] = 0
gpgpu_stall_shd_mem[t_mem][icnt_rc] = 0
gpgpu_stall_shd_mem[t_mem][data_port_stall] = 0
gpgpu_stall_shd_mem[s_mem][bk_conf] = 0
gpgpu_stall_shd_mem[gl_mem][bk_conf] = 0
gpgpu_stall_shd_mem[gl_mem][coal_stall] = 561943
gpgpu_stall_shd_mem[gl_mem][data_port_stall] = 0
gpgpu_stall_shd_mem[g_mem_ld][mshr_rc] = 0
gpgpu_stall_shd_mem[g_mem_ld][icnt_rc] = 0
gpgpu_stall_shd_mem[g_mem_ld][wb_icnt_rc] = 0
gpgpu_stall_shd_mem[g_mem_ld][wb_rsrv_fail] = 0
gpgpu_stall_shd_mem[g_mem_st][mshr_rc] = 0
gpgpu_stall_shd_mem[g_mem_st][icnt_rc] = 0
gpgpu_stall_shd_mem[g_mem_st][wb_icnt_rc] = 0
gpgpu_stall_shd_mem[g_mem_st][wb_rsrv_fail] = 0
gpgpu_stall_shd_mem[l_mem_ld][mshr_rc] = 0
gpgpu_stall_shd_mem[l_mem_ld][icnt_rc] = 0
gpgpu_stall_shd_mem[l_mem_ld][wb_icnt_rc] = 0
gpgpu_stall_shd_mem[l_mem_ld][wb_rsrv_fail] = 0
gpgpu_stall_shd_mem[l_mem_st][mshr_rc] = 0
gpgpu_stall_shd_mem[l_mem_st][icnt_rc] = 0
gpgpu_stall_shd_mem[l_mem_ld][wb_icnt_rc] = 0
gpgpu_stall_shd_mem[l_mem_ld][wb_rsrv_fail] = 0
gpu_reg_bank_conflict_stalls = 0
Warp Occupancy Distribution:
Stall:895381	W0_Idle:63958	W0_Scoreboard:52192	W1:1617	W2:1706	W3:1602	W4:1573	W5:1910	W6:2148	W7:2029	W8:1839	W9:69677	W10:1230	W11:880	W12:982	W13:1064	W14:1298	W15:978	W16:903	W17:828	W18:938	W19:914	W20:652	W21:625	W22:705	W23:1064	W24:1036	W25:1062	W26:1332	W27:1100	W28:1093	W29:981	W30:664	W31:754	W32:331573
traffic_breakdown_coretomem[CONST_ACC_R] = 360 {8:45,}
traffic_breakdown_coretomem[GLOBAL_ACC_R] = 355072 {8:44384,}
traffic_breakdown_coretomem[GLOBAL_ACC_W] = 172800 {40:499,72:504,136:857,}
traffic_breakdown_coretomem[INST_ACC_R] = 840 {8:105,}
traffic_breakdown_memtocore[CONST_ACC_R] = 3240 {72:45,}
traffic_breakdown_memtocore[GLOBAL_ACC_R] = 6036224 {136:44384,}
traffic_breakdown_memtocore[GLOBAL_ACC_W] = 14880 {8:1860,}
traffic_breakdown_memtocore[INST_ACC_R] = 14280 {136:105,}
maxmrqlatency = 48 
maxdqlatency = 0 
maxmflatency = 634 
averagemflatency = 206 
max_icnt2mem_latency = 335 
max_icnt2sh_latency = 53633 
mrq_lat_table:1549 	449 	118 	199 	203 	11 	0 	0 	0 	0 	0 	0 	0 	0 	0 	0 	0 	0 	0 	0 	0 	0 	0 	0 	0 	0 	0 	0 	0 	0 	0 	0 	
dq_lat_table:0 	0 	0 	0 	0 	0 	0 	0 	0 	0 	0 	0 	0 	0 	0 	0 	0 	0 	0 	0 	0 	0 	0 	0 	0 	0 	0 	0 	0 	0 	0 	0 	
mf_lat_table:0 	0 	0 	0 	0 	0 	0 	38494 	7593 	202 	0 	0 	0 	0 	0 	0 	0 	0 	0 	0 	0 	0 	0 	0 	0 	0 	0 	0 	0 	0 	0 	0 	
icnt2mem_lat_table:0 	0 	0 	40100 	5200 	542 	338 	203 	11 	0 	0 	0 	0 	0 	0 	0 	0 	0 	0 	0 	0 	0 	0 	0 	
icnt2sh_lat_table:0 	0 	0 	5364 	22489 	15340 	1236 	0 	0 	0 	0 	0 	0 	160 	681 	1019 	0 	0 	0 	0 	0 	0 	0 	0 	
mf_lat_pw_table:0 	0 	0 	0 	0 	0 	0 	102 	4 	0 	0 	0 	0 	0 	0 	0 	0 	0 	0 	0 	0 	0 	0 	0 	0 	0 	0 	0 	0 	0 	0 	0 	
maximum concurrent accesses to same row:
dram[0]:         1         0         0         0         0         0         0         0         0         0         0         0         0         0         0         0 
dram[1]:         1         0         0         0         0         0         0         0         0         0         0         0         0         0         0         0 
dram[2]:         0         0         0         0         0         0         0         0         0         0         0         0         0         0         0         0 
dram[3]:         0         0         0         0         0         0         0         0         0         0         0         0         0         0         0         0 
dram[4]:         0         0         0         0         0         0         0         0         0         0         0         0         0         0         0         0 
dram[5]:         0         0         0         0         0         0         0         0         0         0         0         0         0         0         0         0 
maximum service time to same row:
dram[0]:       350         0         0         0      1532      1563      2006      2040      2506       841     11419     16468     32027     31225         0         0 
dram[1]:      2062         0         0         0      1551      1569      2057      1885      2532     12054     14175     16334     33166     30729         0         0 
dram[2]:      8722         0         0         0      1549      1543      2012      1988      2294     10574     15831     17157     31169     30712         0         0 
dram[3]:     10210         0         0         0      1546      1537      1793      1990      2153     11594     14538     16447     31165     34213         0         0 
dram[4]:         0         0         0         0      1541      1538      2063      1960       847     11609     14957     13527     31454     32394         0         0 
dram[5]:         0         0         0         0      1569      1534      2012      2047       851     11425     15588     16179     31229     32463         0         0 
average row accesses per activate:
dram[0]:  1.000000      -nan      -nan      -nan 10.000000 10.000000 32.000000 32.000000 44.000000 43.000000 64.000000 64.000000 61.000000 60.000000      -nan      -nan 
dram[1]:  3.000000      -nan      -nan      -nan 10.000000 10.000000 32.000000 32.000000 44.000000 46.000000 64.000000 64.000000 60.000000 56.000000      -nan      -nan 
dram[2]:  2.000000      -nan      -nan      -nan 10.000000 12.000000 32.000000 32.000000 44.000000 46.000000 64.000000 64.000000 60.000000 56.000000      -nan      -nan 
dram[3]:  1.000000      -nan      -nan      -nan 10.000000 12.000000 32.000000 32.000000 44.000000 46.000000 65.000000 64.000000 60.000000 57.000000      -nan      -nan 
dram[4]:      -nan      -nan      -nan      -nan 10.000000 12.000000 32.000000 32.000000 44.000000 46.000000 64.000000 64.000000 60.000000 56.000000      -nan      -nan 
dram[5]:      -nan      -nan      -nan      -nan 10.000000 12.000000 32.000000 32.000000 44.000000 46.000000 64.000000 64.000000 60.000000 56.000000      -nan      -nan 
average row locality = 2529/66 = 38.318180
number of total memory accesses made:
dram[0]:         0         0         0         0         0         0         0         0         0         0         0         0         0         0         0         0 
dram[1]:         0         0         0         0         0         0         0         0         0         0         0         0         0         0         0         0 
dram[2]:         0         0         0         0         0         0         0         0         0         0         0         0         0         0         0         0 
dram[3]:         0         0         0         0         0         0         0         0         0         0         0         0         0         0         0         0 
dram[4]:         0         0         0         0         0         0         0         0         0         0         0         0         0         0         0         0 
dram[5]:         0         0         0         0         0         0         0         0         0         0         0         0         0         0         0         0 
total accesses: 0
min_bank_accesses = 0!
min_chip_accesses = 0!
number of total read accesses:
dram[0]:         3         0         0         0        10        10        32        32        32        31        32        32        30        30         0         0 
dram[1]:         3         0         0         0        10        10        32        32        32        32        32        32        30        28         0         0 
dram[2]:         2         0         0         0        10        12        32        32        32        32        32        32        30        28         0         0 
dram[3]:         1         0         0         0        10        12        32        32        32        32        32        32        30        28         0         0 
dram[4]:         0         0         0         0        10        12        32        32        32        32        32        32        30        28         0         0 
dram[5]:         0         0         0         0        10        12        32        32        32        32        32        32        30        28         0         0 
total reads: 1638
min_bank_accesses = 0!
chip skew: 274/272 = 1.01
number of total write accesses:
dram[0]:         0         0         0         0         0         0         0         0        12        12        32        32        31        30         0         0 
dram[1]:         0         0         0         0         0         0         0         0        12        14        32        32        30        28         0         0 
dram[2]:         0         0         0         0         0         0         0         0        12        14        32        32        30        28         0         0 
dram[3]:         0         0         0         0         0         0         0         0        12        14        33        32        30        29         0         0 
dram[4]:         0         0         0         0         0         0         0         0        12        14        32        32        30        28         0         0 
dram[5]:         0         0         0         0         0         0         0         0        12        14        32        32        30        28         0         0 
total reads: 891
min_bank_accesses = 0!
chip skew: 150/148 = 1.01
average mf latency per bank:
[...]
traffic_breakdown_coretomem[CONST_ACC_R] = 600 {8:75,}
traffic_breakdown_coretomem[GLOBAL_ACC_R] = 2248880 {8:281110,}
traffic_breakdown_coretomem[GLOBAL_ACC_W] = 517200 {40:4279,72:1204,136:1907,}
traffic_breakdown_coretomem[INST_ACC_R] = 3000 {8:375,}
traffic_breakdown_memtocore[CONST_ACC_R] = 5400 {72:75,}
traffic_breakdown_memtocore[GLOBAL_ACC_R] = 38230960 {136:281110,}
traffic_breakdown_memtocore[GLOBAL_ACC_W] = 59120 {8:7390,}
traffic_breakdown_memtocore[INST_ACC_R] = 51000 {136:375,}
maxmrqlatency = 87 
maxdqlatency = 0 
maxmflatency = 634 
averagemflatency = 157 
max_icnt2mem_latency = 335 
max_icnt2sh_latency = 2288022 
mrq_lat_table:7335 	826 	198 	466 	500 	41 	2 	0 	0 	0 	0 	0 	0 	0 	0 	0 	0 	0 	0 	0 	0 	0 	0 	0 	0 	0 	0 	0 	0 	0 	0 	0 	
dq_lat_table:0 	0 	0 	0 	0 	0 	0 	0 	0 	0 	0 	0 	0 	0 	0 	0 	0 	0 	0 	0 	0 	0 	0 	0 	0 	0 	0 	0 	0 	0 	0 	0 	
mf_lat_table:0 	0 	0 	0 	0 	0 	0 	275577 	12796 	202 	0 	0 	0 	0 	0 	0 	0 	0 	0 	0 	0 	0 	0 	0 	0 	0 	0 	0 	0 	0 	0 	0 	
icnt2mem_lat_table:0 	0 	0 	281469 	6199 	687 	359 	225 	11 	0 	0 	0 	0 	0 	0 	0 	0 	0 	0 	0 	0 	0 	0 	0 	
icnt2sh_lat_table:0 	0 	0 	216239 	45020 	18632 	1294 	0 	0 	0 	0 	0 	0 	160 	681 	1077 	1209 	1183 	360 	758 	1467 	495 	0 	0 	
mf_lat_pw_table:0 	0 	0 	0 	0 	0 	0 	4555 	10 	0 	0 	0 	0 	0 	0 	0 	0 	0 	0 	0 	0 	0 	0 	0 	0 	0 	0 	0 	0 	0 	0 	0 	
maximum concurrent accesses to same row:
dram[0]:        65        68        64        66        29        25        32        32        44        43        64        64        63        62        46        47 
dram[1]:        65        66        66        66        30        25        32        32        44        46        64        64        62        60        46        47 
dram[2]:        67        64        66        65        31        24        32        32        44        46        64        64        62        60        46        46 
dram[3]:        66        64        65        67        29        24        32        32        44        46        65        64        62        61        47        49 
dram[4]:        65        65        68        66        25        26        32        32        44        46        64        64        62        60        46        48 
dram[5]:        68        65        66        64        26        29        32        32        44        46        64        64        62        60        48        50 
maximum service time to same row:
dram[0]:     28741     19441     74751     74106    118580    120463      4741      5780    536046    663691     11419     16468     32027     31225       282       287 
dram[1]:     29108    248066     77394     74844    119246    119888      4869      5913    531172    684352     14175     16334     33166    323719       288       285 
dram[2]:     21005    244516     76881     74838    118002    120144      4988      4841    532440    752137     15831     17157     31169    328253      1512       433 
dram[3]:     19269    247893     74079     76251    118167    123860      5137      6416    532319    555000     14538     16447     31165    331804       285       285 
dram[4]:     27116     27752     78440     77859    118287    118449      4791      6441    536855    534429     14957     13527     31454     32394       282       285 
dram[5]:     19723     29921     74085     76441    119330    118444      4838      4988    596284    561816     15588     16179     31229     32463      1153       304 
average row accesses per activate:
dram[0]: 16.833334 34.000000 48.000000 49.000000  3.296296  2.718750  2.133333  2.461539  2.480000  2.886364 48.000000 48.000000 32.000000 47.000000 39.000000 39.500000 
dram[1]: 25.250000 10.400000 49.000000 49.000000  3.103448  2.774194  2.285714  2.461539  2.551020  3.146342 48.000000 48.000000 47.000000 31.333334 39.000000 39.500000 
dram[2]: 33.666668 17.000000 49.000000 48.500000  3.333333  2.838710  2.341463  2.341463  2.500000  3.432432 48.000000 48.000000 47.000000 31.333334 39.000000 39.000000 
dram[3]: 33.333332 12.750000 48.500000 49.500000  3.296296  3.142857  2.461539  2.594594  2.978261  3.023809 48.500000 48.000000 47.000000 31.666666 39.500000 40.500000 
dram[4]: 33.000000 33.000000 50.000000 49.000000  2.774194  2.870968  2.594594  2.742857  2.755102  2.717391 48.000000 48.000000 47.000000 31.333334 39.000000 40.000000 
dram[5]: 34.000000 33.000000 49.000000 48.000000  2.806452  3.172414  2.594594  2.341463  2.750000  2.860465 48.000000 48.000000 47.000000 31.333334 40.000000 41.000000 
average row locality = 9368/1529 = 6.126880
number of total memory accesses made:
dram[0]:         0         0         0         0         0         0         0         0         0         0         0         0         0         0         0         0 
dram[1]:         0         0         0         0         0         0         0         0         0         0         0         0         0         0         0         0 
dram[2]:         0         0         0         0         0         0         0         0         0         0         0         0         0         0         0         0 
dram[3]:         0         0         0         0         0         0         0         0         0         0         0         0         0         0         0         0 
dram[4]:         0         0         0         0         0         0         0         0         0         0         0         0         0         0         0         0 
dram[5]:         0         0         0         0         0         0         0         0         0         0         0         0         0         0         0         0 
total accesses: 0
min_bank_accesses = 0!
min_chip_accesses = 0!
number of total read accesses:
dram[0]:        68        66        64        64        74        74        96        96        94        93        64        64        64        64        64        64 
dram[1]:        68        68        64        64        74        74        96        96        94        93        64        64        64        64        64        64 
dram[2]:        66        68        64        64        74        76        96        96        94        92        64        64        64        64        64        64 
dram[3]:        66        68        64        64        74        76        96        96        94        92        64        64        64        64        64        64 
dram[4]:        66        66        64        64        74        76        96        96        94        92        64        64        64        64        64        64 
dram[5]:        66        66        64        64        74        76        96        96        94        92        64        64        64        64        64        64 
total reads: 7040
bank skew: 96/64 = 1.50
chip skew: 1175/1172 = 1.00
number of total write accesses:
dram[0]:        33        36        32        34        15        13         0         0        30        34        32        32        32        30        14        15 
dram[1]:        33        36        34        34        16        12         0         0        31        36        32        32        30        30        14        15 
dram[2]:        35        34        34        33        16        12         0         0        31        35        32        32        30        30        14        14 
dram[3]:        34        34        33        35        15        12         0         0        43        35        33        32        30        31        15        17 
dram[4]:        33        33        36        34        12        13         0         0        41        33        32        32        30        30        14        16 
dram[5]:        36        33        34        32        13        16         0         0        38        31        32        32        30        30        16        18 
total reads: 2328
min_bank_accesses = 0!
chip skew: 399/382 = 1.04
average mf latency per bank:
dram[0]:       3265      3109      3813      3590      5704      5624      8653      8384      4435      4727      3976      4291      4056      4172      5120      5256
dram[1]:       3213      3216      4033      3742      5823      5832      9103      8239      4315      4586      3824      4267      3950      3772      5310      5512
dram[2]:       3455      3205      3905      3569      5690      5756      8221      8864      4376      4212      4119      4447      4134      4131      5595      5095
dram[3]:       3184      3209      3646      3496      5522      5620      8396      8039      4373      4167      4092      4104      3891      4368      5321      4481
dram[4]:       3017      3526      3521      3664      5807      5454      8472      8884      5046      4202      4004      4081      4253      4083      4989      5196
dram[5]:       3140      3446      3745      3881      5797      5139      9317      8813      5385      4659      4065      3935      4004      3789      5291      4822
maximum mf latency per bank:
dram[0]:        293       311       289       287       549       611       506       552       551       426       465       441       301       397       349       347
dram[1]:        300       493       349       457       634       515       605       482       581       501       395       400       384       489       359       493
dram[2]:        349       319       317       331       536       552       575       432       577       408       391       389       383       346       323       332
dram[3]:        361       305       283       280       546       593       579       455       524       368       380       409       390       411       379       343
dram[4]:        279       277       347       305       626       573       608       430       602       400       416       402       431       328       348       358
dram[5]:        299       347       367       305       579       592       485       576       470       420       469       398       402       373       351       335

Number of Memory Banks Accessed per Memory Operation per Warp (from 0):
0	0	0	0	0	0	0	0	0	0	0	0	0	0	0	0	0	0	0	0	0	0	0	0	0	0	0	0	0	0	0	0	0	0	0	0	0	0	0	0	0	0	0	0	0	0	0	0	0	0	0	0	0	0	0	0	0	0	0	0	0	0	0	0	0	0	0	0	0	0	0	0	0	0	0	0	0	0	0	0	0	0	0	0	0	0	0	0	0	0	0	0	0	0	0	0	
Average # of Memory Banks Accessed per Memory Operation per Warp=-nan

position of mrq chosen
0	0	0	0	0	0	0	0	0	0	0	0	0	0	0	0	

average position of mrq chosen = -nan
Memory Partition 0: 
Cache L2_bank_000:
MSHR contents

Cache L2_bank_001:
MSHR contents

In Dram Latency Queue (total = 0): 
DRAM[0]: 16 bks, busW=4 BL=8 CL=12, tRRD=2 tCCD=6, tRCD=12 tRAS=28 tRP=12 tRC=40
n_cmd=3020186 n_nop=3016773 n_act=263 n_pre=247 n_req=1555 n_rd=2346 n_write=557 bw_util=0.001922
n_activity=28956 dram_eff=0.2005
bk0: 136a 3019331i bk1: 132a 3019353i bk2: 128a 3019498i bk3: 128a 3019514i bk4: 148a 3019121i bk5: 148a 3018923i bk6: 192a 3018674i bk7: 192a 3018758i bk8: 188a 3018113i bk9: 186a 3018242i bk10: 128a 3019222i bk11: 128a 3019275i bk12: 128a 3019288i bk13: 128a 3019388i bk14: 128a 3019655i bk15: 128a 3019595i 
dram_util_bins: 0 0 0 0 0 0 0 0 0 0
dram_eff_bins: 0 0 0 0 0 0 0 0 0 0
mrqq: max=6 avg=0.0015903
Memory Partition 1: 
Cache L2_bank_002:
MSHR contents

Cache L2_bank_003:
MSHR contents

In Dram Latency Queue (total = 0): 
DRAM[1]: 16 bks, busW=4 BL=8 CL=12, tRRD=2 tCCD=6, tRCD=12 tRAS=28 tRP=12 tRC=40
n_cmd=3020186 n_nop=3016752 n_act=263 n_pre=247 n_req=1560 n_rd=2350 n_write=574 bw_util=0.001936
n_activity=29221 dram_eff=0.2001
bk0: 136a 3019398i bk1: 136a 3019253i bk2: 128a 3019457i bk3: 128a 3019484i bk4: 148a 3019073i bk5: 148a 3018987i bk6: 192a 3018748i bk7: 192a 3018749i bk8: 188a 3018197i bk9: 186a 3018296i bk10: 128a 3019293i bk11: 128a 3019322i bk12: 128a 3019394i bk13: 128a 3019348i bk14: 128a 3019698i bk15: 128a 3019628i 
dram_util_bins: 0 0 0 0 0 0 0 0 0 0
dram_eff_bins: 0 0 0 0 0 0 0 0 0 0
mrqq: max=5 avg=0.00117278
Memory Partition 2: 
Cache L2_bank_004:
MSHR contents

Cache L2_bank_005:
MSHR contents

In Dram Latency Queue (total = 0): 
DRAM[2]: 16 bks, busW=4 BL=8 CL=12, tRRD=2 tCCD=6, tRCD=12 tRAS=28 tRP=12 tRC=40
n_cmd=3020186 n_nop=3016794 n_act=253 n_pre=237 n_req=1556 n_rd=2348 n_write=554 bw_util=0.001922
n_activity=28380 dram_eff=0.2045
bk0: 132a 3019470i bk1: 136a 3019318i bk2: 128a 3019451i bk3: 128a 3019471i bk4: 148a 3019078i bk5: 152a 3018974i bk6: 192a 3018757i bk7: 192a 3018658i bk8: 188a 3018147i bk9: 184a 3018471i bk10: 128a 3019314i bk11: 128a 3019323i bk12: 128a 3019382i bk13: 128a 3019349i bk14: 128a 3019693i bk15: 128a 3019682i 
dram_util_bins: 0 0 0 0 0 0 0 0 0 0
dram_eff_bins: 0 0 0 0 0 0 0 0 0 0
mrqq: max=4 avg=0.00123999
Memory Partition 3: 
Cache L2_bank_006:
MSHR contents

Cache L2_bank_007:
MSHR contents

In Dram Latency Queue (total = 0): 
DRAM[3]: 16 bks, busW=4 BL=8 CL=12, tRRD=2 tCCD=6, tRCD=12 tRAS=28 tRP=12 tRC=40
n_cmd=3020186 n_nop=3016779 n_act=247 n_pre=231 n_req=1573 n_rd=2348 n_write=581 bw_util=0.00194
n_activity=28556 dram_eff=0.2051
bk0: 132a 3019419i bk1: 136a 3019325i bk2: 128a 3019512i bk3: 128a 3019510i bk4: 148a 3019057i bk5: 152a 3019058i bk6: 192a 3018800i bk7: 192a 3018756i bk8: 188a 3018203i bk9: 184a 3018347i bk10: 128a 3019236i bk11: 128a 3019309i bk12: 128a 3019402i bk13: 128a 3019355i bk14: 128a 3019691i bk15: 128a 3019618i 
dram_util_bins: 0 0 0 0 0 0 0 0 0 0
dram_eff_bins: 0 0 0 0 0 0 0 0 0 0
mrqq: max=8 avg=0.00145984
Memory Partition 4: 
Cache L2_bank_008:
MSHR contents

Cache L2_bank_009:
MSHR contents

In Dram Latency Queue (total = 0): 
DRAM[4]: 16 bks, busW=4 BL=8 CL=12, tRRD=2 tCCD=6, tRCD=12 tRAS=28 tRP=12 tRC=40
n_cmd=3020186 n_nop=3016799 n_act=252 n_pre=236 n_req=1561 n_rd=2344 n_write=555 bw_util=0.00192
n_activity=28593 dram_eff=0.2028
bk0: 132a 3019433i bk1: 132a 3019469i bk2: 128a 3019523i bk3: 128a 3019531i bk4: 148a 3019033i bk5: 152a 3018986i bk6: 192a 3018883i bk7: 192a 3018889i bk8: 188a 3018144i bk9: 184a 3018229i bk10: 128a 3019196i bk11: 128a 3019308i bk12: 128a 3019387i bk13: 128a 3019374i bk14: 128a 3019662i bk15: 128a 3019649i 
dram_util_bins: 0 0 0 0 0 0 0 0 0 0
dram_eff_bins: 0 0 0 0 0 0 0 0 0 0
mrqq: max=7 avg=0.00136349
Memory Partition 5: 
Cache L2_bank_010:
MSHR contents

Cache L2_bank_011:
MSHR contents

In Dram Latency Queue (total = 0): 
DRAM[5]: 16 bks, busW=4 BL=8 CL=12, tRRD=2 tCCD=6, tRCD=12 tRAS=28 tRP=12 tRC=40
n_cmd=3020186 n_nop=3016775 n_act=252 n_pre=236 n_req=1563 n_rd=2344 n_write=579 bw_util=0.001936
n_activity=28690 dram_eff=0.2038
bk0: 132a 3019429i bk1: 132a 3019421i bk2: 128a 3019461i bk3: 128a 3019556i bk4: 148a 3019058i bk5: 152a 3018991i bk6: 192a 3018869i bk7: 192a 3018667i bk8: 188a 3018195i bk9: 184a 3018294i bk10: 128a 3019217i bk11: 128a 3019308i bk12: 128a 3019331i bk13: 128a 3019377i bk14: 128a 3019620i bk15: 128a 3019584i 
dram_util_bins: 0 0 0 0 0 0 0 0 0 0
dram_eff_bins: 0 0 0 0 0 0 0 0 0 0
mrqq: max=8 avg=0.00143336

========= L2 cache stats =========
L2_cache_bank[0]: Access = 23856, Miss = 588, Miss_rate = 0.025, Pending_hits = 99, Reservation_fails = 823
L2_cache_bank[1]: Access = 24031, Miss = 585, Miss_rate = 0.024, Pending_hits = 71, Reservation_fails = 460
L2_cache_bank[2]: Access = 24122, Miss = 588, Miss_rate = 0.024, Pending_hits = 93, Reservation_fails = 562
L2_cache_bank[3]: Access = 24340, Miss = 587, Miss_rate = 0.024, Pending_hits = 82, Reservation_fails = 418
L2_cache_bank[4]: Access = 24302, Miss = 586, Miss_rate = 0.024, Pending_hits = 79, Reservation_fails = 444
L2_cache_bank[5]: Access = 24127, Miss = 588, Miss_rate = 0.024, Pending_hits = 71, Reservation_fails = 371
L2_cache_bank[6]: Access = 23955, Miss = 586, Miss_rate = 0.024, Pending_hits = 98, Reservation_fails = 613
L2_cache_bank[7]: Access = 23583, Miss = 588, Miss_rate = 0.025, Pending_hits = 75, Reservation_fails = 407
L2_cache_bank[8]: Access = 24171, Miss = 586, Miss_rate = 0.024, Pending_hits = 92, Reservation_fails = 730
L2_cache_bank[9]: Access = 23977, Miss = 586, Miss_rate = 0.024, Pending_hits = 77, Reservation_fails = 450
L2_cache_bank[10]: Access = 24675, Miss = 586, Miss_rate = 0.024, Pending_hits = 92, Reservation_fails = 443
L2_cache_bank[11]: Access = 23811, Miss = 586, Miss_rate = 0.025, Pending_hits = 85, Reservation_fails = 616
L2_total_cache_accesses = 288950
L2_total_cache_misses = 7040
L2_total_cache_miss_rate = 0.0244
L2_total_cache_pending_hits = 1014
L2_total_cache_reservation_fails = 6337
L2_total_cache_breakdown:
	L2_cache_stats_breakdown[GLOBAL_ACC_R][HIT] = 275333
	L2_cache_stats_breakdown[GLOBAL_ACC_R][HIT_RESERVED] = 844
	L2_cache_stats_breakdown[GLOBAL_ACC_R][MISS] = 4933
	L2_cache_stats_breakdown[GLOBAL_ACC_R][RESERVATION_FAIL] = 4584
	L2_cache_stats_breakdown[CONST_ACC_R][HIT] = 63
	L2_cache_stats_breakdown[CONST_ACC_R][HIT_RESERVED] = 9
	L2_cache_stats_breakdown[CONST_ACC_R][MISS] = 3
	L2_cache_stats_breakdown[CONST_ACC_R][RESERVATION_FAIL] = 317
	L2_cache_stats_breakdown[GLOBAL_ACC_W][HIT] = 5195
	L2_cache_stats_breakdown[GLOBAL_ACC_W][HIT_RESERVED] = 116
	L2_cache_stats_breakdown[GLOBAL_ACC_W][MISS] = 2079
	L2_cache_stats_breakdown[GLOBAL_ACC_W][RESERVATION_FAIL] = 322
	L2_cache_stats_breakdown[INST_ACC_R][HIT] = 305
	L2_cache_stats_breakdown[INST_ACC_R][HIT_RESERVED] = 45
	L2_cache_stats_breakdown[INST_ACC_R][MISS] = 25
	L2_cache_stats_breakdown[INST_ACC_R][RESERVATION_FAIL] = 1114
L2_cache_data_port_util = 0.040
L2_cache_fill_port_util = 0.001

icnt_total_pkts_mem_to_simt=1415040
icnt_total_pkts_simt_to_mem=303265
LD_mem_lat_dist  0 0 0 0 0 0 0 0 0 0 0 0 0 0 0 0 0 0 0 0 0 0 0 0 0 0 0
ST_mem_lat_dist  0 0 0 0 0 0 0 0 0 0 0 0 0 0 0 0 0 0 0 0 0 0 0 0 0 0 0
----------------------------Interconnect-DETAILS--------------------------------
Class 0:
Packet latency average = 10.8354
	minimum = 6
	maximum = 161
Network latency average = 9.90553
	minimum = 6
	maximum = 150
Slowest packet = 576230
Flit latency average = 8.00024
	minimum = 6
	maximum = 149
Slowest flit = 1714023
Fragmentation average = 0
	minimum = 0
	maximum = 0
Injected packet rate average = 0.00504635
	minimum = 0.00390187 (at node 11)
	maximum = 0.00753465 (at node 16)
Accepted packet rate average = 0.00504635
	minimum = 0.00390187 (at node 11)
	maximum = 0.00753465 (at node 16)
Injected flit rate average = 0.0137438
	minimum = 0.00461946 (at node 11)
	maximum = 0.0287034 (at node 26)
Accepted flit rate average= 0.0137438
	minimum = 0.00394672 (at node 19)
	maximum = 0.0233215 (at node 2)
Injected packet length average = 2.7235
Accepted packet length average = 2.7235
Total in-flight flits = 0 (0 measured)
====== Overall Traffic Statistics ======
====== Traffic class 0 ======
Packet latency average = 12.1085 (4 samples)
	minimum = 6 (4 samples)
	maximum = 125 (4 samples)
Network latency average = 10.8622 (4 samples)
	minimum = 6 (4 samples)
	maximum = 115.5 (4 samples)
Flit latency average = 9.48719 (4 samples)
	minimum = 6 (4 samples)
	maximum = 114.25 (4 samples)
Fragmentation average = 0.000153576 (4 samples)
	minimum = 0 (4 samples)
	maximum = 14.25 (4 samples)
Injected packet rate average = 0.0261568 (4 samples)
	minimum = 0.0197616 (4 samples)
	maximum = 0.039002 (4 samples)
Accepted packet rate average = 0.0261568 (4 samples)
	minimum = 0.0197616 (4 samples)
	maximum = 0.039002 (4 samples)
Injected flit rate average = 0.0774002 (4 samples)
	minimum = 0.0223426 (4 samples)
	maximum = 0.156982 (4 samples)
Accepted flit rate average = 0.0774002 (4 samples)
	minimum = 0.0300644 (4 samples)
	maximum = 0.167735 (4 samples)
Injected packet size average = 2.95909 (4 samples)
Accepted packet size average = 2.95909 (4 samples)
Hops average = 1 (4 samples)
----------------------------END-of-Interconnect-DETAILS-------------------------


gpgpu_simulation_time = 0 days, 0 hrs, 25 min, 10 sec (1510 sec)
gpgpu_simulation_rate = 51887 (inst/sec)
gpgpu_simulation_rate = 1515 (cycle/sec)
7 2 1 0 4 1 4 9 6 9 0 6 9 0 1 5 9 7 3 4 9 6 6 5 4 0 7 4
