

        *** GPGPU-Sim Simulator Version 3.2.2  [build 0] ***


GPGPU-Sim PTX: simulation mode 0 (can change with PTX_SIM_MODE_FUNC environment variable:
               1=functional simulation only, 0=detailed performance simulator)
GPGPU-Sim: Configuration options:

-network_mode                           1 # Interconnection network mode
-inter_config_file   config_fermi_islip.icnt # Interconnection network config file
-gpgpu_ptx_use_cuobjdump                    1 # Use cuobjdump to extract ptx and sass from binaries
-gpgpu_experimental_lib_support                    0 # Try to extract code from cuda libraries [Broken because of unknown cudaGetExportTable]
-gpgpu_ptx_convert_to_ptxplus                    0 # Convert SASS (native ISA) to ptxplus and run ptxplus
-gpgpu_ptx_force_max_capability                   20 # Force maximum compute capability
-gpgpu_ptx_inst_debug_to_file                    0 # Dump executed instructions' debug information to file
-gpgpu_ptx_inst_debug_file       inst_debug.txt # Executed instructions' debug output file
-gpgpu_ptx_inst_debug_thread_uid                    1 # Thread UID for executed instructions' debug output
-gpgpu_simd_model                       1 # 1 = post-dominator
-gpgpu_shader_core_pipeline              1536:32 # shader core pipeline config, i.e., {<nthread>:<warpsize>}
-gpgpu_tex_cache:l1  4:128:24,L:R:m:N:L,F:128:4,128:2 # per-shader L1 texture cache  (READ-ONLY) config  {<nsets>:<bsize>:<assoc>,<rep>:<wr>:<alloc>:<wr_alloc>,<mshr>:<N>:<merge>,<mq>:<rf>}
-gpgpu_const_cache:l1 64:64:2,L:R:f:N:L,A:2:32,4 # per-shader L1 constant memory cache  (READ-ONLY) config  {<nsets>:<bsize>:<assoc>,<rep>:<wr>:<alloc>:<wr_alloc>,<mshr>:<N>:<merge>,<mq>} 
-gpgpu_cache:il1     4:128:4,L:R:f:N:L,A:2:32,4 # shader L1 instruction cache config  {<nsets>:<bsize>:<assoc>,<rep>:<wr>:<alloc>:<wr_alloc>,<mshr>:<N>:<merge>,<mq>} 
-gpgpu_cache:dl1     32:128:4,L:L:m:N:H,A:32:8,8 # per-shader L1 data cache config  {<nsets>:<bsize>:<assoc>,<rep>:<wr>:<alloc>:<wr_alloc>,<mshr>:<N>:<merge>,<mq> | none}
-gpgpu_cache:dl1PrefL1                 none # per-shader L1 data cache config  {<nsets>:<bsize>:<assoc>,<rep>:<wr>:<alloc>:<wr_alloc>,<mshr>:<N>:<merge>,<mq> | none}
-gpgpu_cache:dl1PreShared                 none # per-shader L1 data cache config  {<nsets>:<bsize>:<assoc>,<rep>:<wr>:<alloc>:<wr_alloc>,<mshr>:<N>:<merge>,<mq> | none}
-gmem_skip_L1D                          0 # global memory access skip L1D cache (implements -Xptxas -dlcm=cg, default=no skip)
-gpgpu_perfect_mem                      0 # enable perfect memory mode (no cache miss)
-n_regfile_gating_group                    4 # group of lanes that should be read/written together)
-gpgpu_clock_gated_reg_file                    0 # enable clock gated reg file for power calculations
-gpgpu_clock_gated_lanes                    0 # enable clock gated lanes for power calculations
-gpgpu_shader_registers                32768 # Number of registers per shader core. Limits number of concurrent CTAs. (default 8192)
-gpgpu_shader_cta                       8 # Maximum number of concurrent CTAs in shader (default 8)
-gpgpu_num_cta_barriers                   16 # Maximum number of named barriers per CTA (default 16)
-gpgpu_n_clusters                      15 # number of processing clusters
-gpgpu_n_cores_per_cluster                    1 # number of simd cores per cluster
-gpgpu_n_cluster_ejection_buffer_size                    8 # number of packets in ejection buffer
-gpgpu_n_ldst_response_buffer_size                    2 # number of response packets in ld/st unit ejection buffer
-gpgpu_shmem_size                   16384 # Size of shared memory per shader core (default 16kB)
-gpgpu_shmem_size                   49152 # Size of shared memory per shader core (default 16kB)
-gpgpu_shmem_size_PrefL1                16384 # Size of shared memory per shader core (default 16kB)
-gpgpu_shmem_size_PrefShared                16384 # Size of shared memory per shader core (default 16kB)
-gpgpu_shmem_num_banks                   32 # Number of banks in the shared memory in each shader core (default 16)
-gpgpu_shmem_limited_broadcast                    0 # Limit shared memory to do one broadcast per cycle (default on)
-gpgpu_shmem_warp_parts                    1 # Number of portions a warp is divided into for shared memory bank conflict check 
-gpgpu_warpdistro_shader                   -1 # Specify which shader core to collect the warp size distribution from
-gpgpu_warp_issue_shader                    0 # Specify which shader core to collect the warp issue distribution from
-gpgpu_local_mem_map                    1 # Mapping from local memory space address to simulated GPU physical address space (default = enabled)
-gpgpu_num_reg_banks                   16 # Number of register banks (default = 8)
-gpgpu_reg_bank_use_warp_id                    0 # Use warp ID in mapping registers to banks (default = off)
-gpgpu_operand_collector_num_units_sp                    6 # number of collector units (default = 4)
-gpgpu_operand_collector_num_units_sfu                    8 # number of collector units (default = 4)
-gpgpu_operand_collector_num_units_mem                    2 # number of collector units (default = 2)
-gpgpu_operand_collector_num_units_gen                    0 # number of collector units (default = 0)
-gpgpu_operand_collector_num_in_ports_sp                    2 # number of collector unit in ports (default = 1)
-gpgpu_operand_collector_num_in_ports_sfu                    1 # number of collector unit in ports (default = 1)
-gpgpu_operand_collector_num_in_ports_mem                    1 # number of collector unit in ports (default = 1)
-gpgpu_operand_collector_num_in_ports_gen                    0 # number of collector unit in ports (default = 0)
-gpgpu_operand_collector_num_out_ports_sp                    2 # number of collector unit in ports (default = 1)
-gpgpu_operand_collector_num_out_ports_sfu                    1 # number of collector unit in ports (default = 1)
-gpgpu_operand_collector_num_out_ports_mem                    1 # number of collector unit in ports (default = 1)
-gpgpu_operand_collector_num_out_ports_gen                    0 # number of collector unit in ports (default = 0)
-gpgpu_coalesce_arch                   13 # Coalescing arch (default = 13, anything else is off for now)
-gpgpu_num_sched_per_core                    2 # Number of warp schedulers per core
-gpgpu_max_insn_issue_per_warp                    1 # Max number of instructions that can be issued per warp in one cycle by scheduler
-gpgpu_simt_core_sim_order                    1 # Select the simulation order of cores in a cluster (0=Fix, 1=Round-Robin)
-gpgpu_pipeline_widths        2,1,1,2,1,1,2 # Pipeline widths ID_OC_SP,ID_OC_SFU,ID_OC_MEM,OC_EX_SP,OC_EX_SFU,OC_EX_MEM,EX_WB
-gpgpu_num_sp_units                     2 # Number of SP units (default=1)
-gpgpu_num_sfu_units                    1 # Number of SF units (default=1)
-gpgpu_num_mem_units                    1 # Number if ldst units (default=1) WARNING: not hooked up to anything
-gpgpu_scheduler                      gto # Scheduler configuration: < lrr | gto | two_level_active > If two_level_active:<num_active_warps>:<inner_prioritization>:<outer_prioritization>For complete list of prioritization values see shader.h enum scheduler_prioritization_typeDefault: gto
-gpgpu_dram_scheduler                    1 # 0 = fifo, 1 = FR-FCFS (defaul)
-gpgpu_dram_partition_queues              8:8:8:8 # i2$:$2d:d2$:$2i
-l2_ideal                               0 # Use a ideal L2 cache that always hit
-gpgpu_cache:dl2     64:128:8,L:B:m:W:L,A:32:4,4:0,32 # unified banked L2 data cache config  {<nsets>:<bsize>:<assoc>,<rep>:<wr>:<alloc>:<wr_alloc>,<mshr>:<N>:<merge>,<mq>}
-gpgpu_cache:dl2_texture_only                    0 # L2 cache used for texture only
-gpgpu_n_mem                            6 # number of memory modules (e.g. memory controllers) in gpu
-gpgpu_n_sub_partition_per_mchannel                    2 # number of memory subpartition in each memory module
-gpgpu_n_mem_per_ctrlr                    2 # number of memory chips per memory controller
-gpgpu_memlatency_stat                   14 # track and display latency statistics 0x2 enables MC, 0x4 enables queue logs
-gpgpu_frfcfs_dram_sched_queue_size                   16 # 0 = unlimited (default); # entries per chip
-gpgpu_dram_return_queue_size                  116 # 0 = unlimited (default); # entries per chip
-gpgpu_dram_buswidth                    4 # default = 4 bytes (8 bytes per cycle at DDR)
-gpgpu_dram_burst_length                    8 # Burst length of each DRAM request (default = 4 data bus cycle)
-dram_data_command_freq_ratio                    4 # Frequency ratio between DRAM data bus and command bus (default = 2 times, i.e. DDR)
-gpgpu_dram_timing_opt nbk=16:CCD=2:RRD=6:RCD=12:RAS=28:RP=12:RC=40: CL=12:WL=4:CDLR=5:WR=12:nbkgrp=4:CCDL=3:RTPL=2 # DRAM timing parameters = {nbk:tCCD:tRRD:tRCD:tRAS:tRP:tRC:CL:WL:tCDLR:tWR:nbkgrp:tCCDL:tRTPL}
-rop_latency                          120 # ROP queue latency (default 85)
-dram_latency                         100 # DRAM latency (default 30)
-gpgpu_mem_addr_mapping dramid@8;00000000.00000000.00000000.00000000.0000RRRR.RRRRRRRR.BBBCCCCB.CCSSSSSS # mapping memory address to dram model {dramid@<start bit>;<memory address map>}
-gpgpu_mem_addr_test                    0 # run sweep test to check address mapping for aliased address
-gpgpu_mem_address_mask                    1 # 0 = old addressing mask, 1 = new addressing mask, 2 = new add. mask + flipped bank sel and chip sel bits
-gpuwattch_xml_file  gpuwattch_gtx480.xml # GPUWattch XML file
-power_simulation_enabled                    1 # Turn on power simulator (1=On, 0=Off)
-power_per_cycle_dump                    0 # Dump detailed power output each cycle
-power_trace_enabled                    0 # produce a file for the power trace (1=On, 0=Off)
-power_trace_zlevel                     6 # Compression level of the power trace output log (0=no comp, 9=highest)
-steady_power_levels_enabled                    0 # produce a file for the steady power levels (1=On, 0=Off)
-steady_state_definition                  8:4 # allowed deviation:number of samples
-gpgpu_max_cycle                        0 # terminates gpu simulation early (0 = no limit)
-gpgpu_max_insn                         0 # terminates gpu simulation early (0 = no limit)
-gpgpu_max_cta                          0 # terminates gpu simulation early (0 = no limit)
-gpgpu_runtime_stat                   500 # display runtime statistics such as dram utilization {<freq>:<flag>}
-liveness_message_freq                    1 # Minimum number of seconds between simulation liveness messages (0 = always print)
-gpgpu_flush_l1_cache                    0 # Flush L1 cache at the end of each kernel call
-gpgpu_flush_l2_cache                    0 # Flush L2 cache at the end of each kernel call
-gpgpu_deadlock_detect                    1 # Stop the simulation at deadlock (1=on (default), 0=off)
-gpgpu_ptx_instruction_classification                    0 # if enabled will classify ptx instruction types per kernel (Max 255 kernels now)
-gpgpu_ptx_sim_mode                     0 # Select between Performance (default) or Functional simulation (1)
-gpgpu_clock_domains 700.0:700.0:700.0:924.0 # Clock Domain Frequencies in MhZ {<Core Clock>:<ICNT Clock>:<L2 Clock>:<DRAM Clock>}
-gpgpu_max_concurrent_kernel                    8 # maximum kernels that can run concurrently on GPU
-gpgpu_cflog_interval                    0 # Interval between each snapshot in control flow logger
-visualizer_enabled                     0 # Turn on visualizer output (1=On, 0=Off)
-visualizer_outputfile                 NULL # Specifies the output log file for visualizer
-visualizer_zlevel                      6 # Compression level of the visualizer output log (0=no comp, 9=highest)
-trace_enabled                          0 # Turn on traces
-trace_components                    none # comma seperated list of traces to enable. Complete list found in trace_streams.tup. Default none
-trace_sampling_core                    0 # The core which is printed using CORE_DPRINTF. Default 0
-trace_sampling_memory_partition                   -1 # The memory partition which is printed using MEMPART_DPRINTF. Default -1 (i.e. all)
-enable_ptx_file_line_stats                    1 # Turn on PTX source line statistic profiling. (1 = On)
-ptx_line_stats_filename gpgpu_inst_stats.txt # Output file for PTX source line statistics.
-save_embedded_ptx                      0 # saves ptx files embedded in binary as <n>.ptx
-keep                                   0 # keep intermediate files created by GPGPU-Sim when interfacing with external programs
-gpgpu_ptx_save_converted_ptxplus                    0 # Saved converted ptxplus to a file
-ptx_opcode_latency_int         4,13,4,5,145 # Opcode latencies for integers <ADD,MAX,MUL,MAD,DIV>Default 1,1,19,25,145
-ptx_opcode_latency_fp          4,13,4,5,39 # Opcode latencies for single precision floating points <ADD,MAX,MUL,MAD,DIV>Default 1,1,1,1,30
-ptx_opcode_latency_dp         8,19,8,8,330 # Opcode latencies for double precision floating points <ADD,MAX,MUL,MAD,DIV>Default 8,8,8,8,335
-ptx_opcode_initiation_int            1,2,2,1,8 # Opcode initiation intervals for integers <ADD,MAX,MUL,MAD,DIV>Default 1,1,4,4,32
-ptx_opcode_initiation_fp            1,2,1,1,4 # Opcode initiation intervals for single precision floating points <ADD,MAX,MUL,MAD,DIV>Default 1,1,1,1,5
-ptx_opcode_initiation_dp         8,16,8,8,130 # Opcode initiation intervals for double precision floating points <ADD,MAX,MUL,MAD,DIV>Default 8,8,8,8,130
DRAM Timing Options:
nbk                                    16 # number of banks
CCD                                     2 # column to column delay
RRD                                     6 # minimal delay between activation of rows in different banks
RCD                                    12 # row to column delay
RAS                                    28 # time needed to activate row
RP                                     12 # time needed to precharge (deactivate) row
RC                                     40 # row cycle time
CDLR                                    5 # switching from write to read (changes tWTR)
WR                                     12 # last data-in to row precharge
CL                                     12 # CAS latency
WL                                      4 # Write latency
nbkgrp                                  4 # number of bank groups
CCDL                                    3 # column to column delay between accesses to different bank groups
RTPL                                    2 # read to precharge delay between accesses to different bank groups
Total number of memory sub partition = 12
addr_dec_mask[CHIP]  = 0000000000000000 	high:64 low:0
addr_dec_mask[BK]    = 000000000000e100 	high:16 low:8
addr_dec_mask[ROW]   = 000000000fff0000 	high:28 low:16
addr_dec_mask[COL]   = 0000000000001eff 	high:13 low:0
addr_dec_mask[BURST] = 000000000000003f 	high:6 low:0
sub_partition_id_mask = 0000000000000100
GPGPU-Sim uArch: clock freqs: 700000000.000000:700000000.000000:700000000.000000:924000000.000000
GPGPU-Sim uArch: clock periods: 0.00000000142857142857:0.00000000142857142857:0.00000000142857142857:0.00000000108225108225
*** Initializing Memory Statistics ***
GPGPU-Sim uArch: interconnect node map (shaderID+MemID to icntID)
GPGPU-Sim uArch: Memory nodes ID start from index: 15
GPGPU-Sim uArch:    0   1   2   3   4
GPGPU-Sim uArch:    5   6   7   8   9
GPGPU-Sim uArch:   10  11  12  13  14
GPGPU-Sim uArch:   15  16  17  18  19
GPGPU-Sim uArch:   20  21  22  23  24
GPGPU-Sim uArch:   25  26
GPGPU-Sim uArch: interconnect node reverse map (icntID to shaderID+MemID)
GPGPU-Sim uArch: Memory nodes start from ID: 15
GPGPU-Sim uArch:    0   1   2   3   4
GPGPU-Sim uArch:    5   6   7   8   9
GPGPU-Sim uArch:   10  11  12  13  14
GPGPU-Sim uArch:   15  16  17  18  19
GPGPU-Sim uArch:   20  21  22  23  24
GPGPU-Sim uArch:   25  26
ee89055bc58e180b7b05d1332bfe7767  /home/scratch/adwait/applications/benchmarks/CUDA/LPS/gpgpu_ptx_sim__LPS
GPGPU-Sim uArch: performance model initialization complete.
GPGPU-Sim PTX: __cudaRegisterFatBinary, fat_cubin_handle = 1, filename=laplace3d.cu
self exe links to: /home/scratch/adwait/applications/benchmarks/CUDA/LPS/gpgpu_ptx_sim__LPS
Running md5sum using "md5sum /home/scratch/adwait/applications/benchmarks/CUDA/LPS/gpgpu_ptx_sim__LPS "
Running cuobjdump using "$CUDA_INSTALL_PATH/bin/cuobjdump -ptx -elf -sass /home/scratch/adwait/applications/benchmarks/CUDA/LPS/gpgpu_ptx_sim__LPS > _cuobjdump_complete_output_CliCyd"
Parsing file _cuobjdump_complete_output_CliCyd
######### cuobjdump parser ########
## Adding new section ELF
Adding arch: sm_20
Adding identifier: laplace3d.cu
## Adding new section PTX
Adding ptx filename: _cuobjdump_1.ptx
Adding arch: sm_20
Adding identifier: laplace3d.cu
Done parsing!!!
GPGPU-Sim PTX: __cudaRegisterFunction _Z13GPU_laplace3diiiiPfS_ : hostFun 0x0x40566f, fat_cubin_handle = 1
GPGPU-Sim PTX: allocating shared region for "__cuda___cuda_local_var_33528_33_non_const_u132" from 0x0 to 0x990 (shared memory space)
GPGPU-Sim PTX: instruction assembly for function '_Z13GPU_laplace3diiiiPfS_'...   done.
GPGPU-Sim PTX: finding reconvergence points for '_Z13GPU_laplace3diiiiPfS_'...
GPGPU-Sim PTX: Finding dominators for '_Z13GPU_laplace3diiiiPfS_'...
GPGPU-Sim PTX: Finding immediate dominators for '_Z13GPU_laplace3diiiiPfS_'...
GPGPU-Sim PTX: Finding postdominators for '_Z13GPU_laplace3diiiiPfS_'...
GPGPU-Sim PTX: Finding immediate postdominators for '_Z13GPU_laplace3diiiiPfS_'...
GPGPU-Sim PTX: pre-decoding instructions for '_Z13GPU_laplace3diiiiPfS_'...
GPGPU-Sim PTX: reconvergence points for _Z13GPU_laplace3diiiiPfS_...
GPGPU-Sim PTX:  1 (potential) branch divergence @  PC=0x060 (_1.ptx:82) @!%p1 bra $Lt_0_14338;
GPGPU-Sim PTX:    immediate post dominator      @  PC=0x230 (_1.ptx:154) add.s32 %r57, %r37, %r12;
GPGPU-Sim PTX:  2 (potential) branch divergence @  PC=0x080 (_1.ptx:86) @%p2 bra $Lt_0_14850;
GPGPU-Sim PTX:    immediate post dominator      @  PC=0x120 (_1.ptx:113) add.s32 %r30, %r16, 1;
GPGPU-Sim PTX:  3 (potential) branch divergence @  PC=0x0a0 (_1.ptx:92) bra.uni $Lt_0_14594;
GPGPU-Sim PTX:    immediate post dominator      @  PC=0x120 (_1.ptx:113) add.s32 %r30, %r16, 1;
GPGPU-Sim PTX:  4 (potential) branch divergence @  PC=0x200 (_1.ptx:145) bra.uni $Lt_0_14082;
GPGPU-Sim PTX:    immediate post dominator      @  PC=0x230 (_1.ptx:154) add.s32 %r57, %r37, %r12;
GPGPU-Sim PTX:  5 (potential) branch divergence @  PC=0x290 (_1.ptx:166) @%p5 bra $Lt_0_15106;
GPGPU-Sim PTX:    immediate post dominator      @  PC=0x308 (_1.ptx:183) mov.u64 %rd1, __cuda___cuda_local_var_33528_33_non_const_u132;
GPGPU-Sim PTX:  6 (potential) branch divergence @  PC=0x320 (_1.ptx:186) @!%p6 bra $Lt_0_15618;
GPGPU-Sim PTX:    immediate post dominator      @  PC=0x380 (_1.ptx:200) ld.param.s32 %r73, [__cudaparm__Z13GPU_laplace3diiiiPfS__NZ];
GPGPU-Sim PTX:  7 (potential) branch divergence @  PC=0x398 (_1.ptx:203) @%p7 bra $Lt_0_16130;
GPGPU-Sim PTX:    immediate post dominator      @  PC=0x6d8 (_1.ptx:335) exit;
GPGPU-Sim PTX:  8 (potential) branch divergence @  PC=0x408 (_1.ptx:219) @%p8 bra $Lt_0_17410;
GPGPU-Sim PTX:    immediate post dominator      @  PC=0x4a0 (_1.ptx:245) @!%p6 bra $Lt_0_18434;
GPGPU-Sim PTX:  9 (potential) branch divergence @  PC=0x468 (_1.ptx:235) @%p9 bra $Lt_0_17410;
GPGPU-Sim PTX:    immediate post dominator      @  PC=0x4a0 (_1.ptx:245) @!%p6 bra $Lt_0_18434;
GPGPU-Sim PTX: 10 (potential) branch divergence @  PC=0x4a0 (_1.ptx:245) @!%p6 bra $Lt_0_18434;
GPGPU-Sim PTX:    immediate post dominator      @  PC=0x548 (_1.ptx:273) bar.sync 0;
GPGPU-Sim PTX: 11 (potential) branch divergence @  PC=0x510 (_1.ptx:262) @%p10 bra $Lt_0_18434;
GPGPU-Sim PTX:    immediate post dominator      @  PC=0x548 (_1.ptx:273) bar.sync 0;
GPGPU-Sim PTX: 12 (potential) branch divergence @  PC=0x560 (_1.ptx:276) @%p11 bra $Lt_0_18946;
GPGPU-Sim PTX:    immediate post dominator      @  PC=0x6b8 (_1.ptx:329) bar.sync 0;
GPGPU-Sim PTX: 13 (potential) branch divergence @  PC=0x578 (_1.ptx:280) @%p12 bra $Lt_0_20738;
GPGPU-Sim PTX:    immediate post dominator      @  PC=0x688 (_1.ptx:321) ld.param.u64 %rd35, [__cudaparm__Z13GPU_laplace3diiiiPfS__d_u2];
GPGPU-Sim PTX: 14 (potential) branch divergence @  PC=0x588 (_1.ptx:282) @%p13 bra $Lt_0_20738;
GPGPU-Sim PTX:    immediate post dominator      @  PC=0x688 (_1.ptx:321) ld.param.u64 %rd35, [__cudaparm__Z13GPU_laplace3diiiiPfS__d_u2];
GPGPU-Sim PTX: 15 (potential) branch divergence @  PC=0x5a0 (_1.ptx:285) @%p14 bra $Lt_0_20738;
GPGPU-Sim PTX:    immediate post dominator      @  PC=0x688 (_1.ptx:321) ld.param.u64 %rd35, [__cudaparm__Z13GPU_laplace3diiiiPfS__d_u2];
GPGPU-Sim PTX: 16 (potential) branch divergence @  PC=0x5b0 (_1.ptx:287) @%p15 bra $Lt_0_20738;
GPGPU-Sim PTX:    immediate post dominator      @  PC=0x688 (_1.ptx:321) ld.param.u64 %rd35, [__cudaparm__Z13GPU_laplace3diiiiPfS__d_u2];
GPGPU-Sim PTX: 17 (potential) branch divergence @  PC=0x5c8 (_1.ptx:290) @%p16 bra $Lt_0_20738;
GPGPU-Sim PTX:    immediate post dominator      @  PC=0x688 (_1.ptx:321) ld.param.u64 %rd35, [__cudaparm__Z13GPU_laplace3diiiiPfS__d_u2];
GPGPU-Sim PTX: 18 (potential) branch divergence @  PC=0x5d8 (_1.ptx:292) @%p17 bra $L_0_12546;
GPGPU-Sim PTX:    immediate post dominator      @  PC=0x688 (_1.ptx:321) ld.param.u64 %rd35, [__cudaparm__Z13GPU_laplace3diiiiPfS__d_u2];
GPGPU-Sim PTX: 19 (potential) branch divergence @  PC=0x600 (_1.ptx:300) bra.uni $L_0_12290;
GPGPU-Sim PTX:    immediate post dominator      @  PC=0x688 (_1.ptx:321) ld.param.u64 %rd35, [__cudaparm__Z13GPU_laplace3diiiiPfS__d_u2];
GPGPU-Sim PTX: 20 (potential) branch divergence @  PC=0x6d0 (_1.ptx:332) @%p18 bra $Lt_0_16642;
GPGPU-Sim PTX:    immediate post dominator      @  PC=0x6d8 (_1.ptx:335) exit;
GPGPU-Sim PTX: ... end of reconvergence points for _Z13GPU_laplace3diiiiPfS_
GPGPU-Sim PTX: ... done pre-decoding instructions for '_Z13GPU_laplace3diiiiPfS_'.
GPGPU-Sim PTX: finished parsing EMBEDDED .ptx file _1.ptx
Adding _cuobjdump_1.ptx with cubin handle 1
GPGPU-Sim PTX: extracting embedded .ptx to temporary file "_ptx_RuvRlG"
Running: cat _ptx_RuvRlG | sed 's/.version 1.5/.version 1.4/' | sed 's/, texmode_independent//' | sed 's/\(\.extern \.const\[1\] .b8 \w\+\)\[\]/\1\[1\]/' | sed 's/const\[.\]/const\[0\]/g' > _ptx2_JLSxb9
GPGPU-Sim PTX: generating ptxinfo using "$CUDA_INSTALL_PATH/bin/ptxas --gpu-name=sm_20 -v _ptx2_JLSxb9 --output-file  /dev/null 2> _ptx_RuvRlGinfo"
GPGPU-Sim PTX: Kernel '_Z13GPU_laplace3diiiiPfS_' : regs=17, lmem=0, smem=2448, cmem=64
GPGPU-Sim PTX: removing ptxinfo using "rm -f _ptx_RuvRlG _ptx2_JLSxb9 _ptx_RuvRlGinfo"
GPGPU-Sim PTX: loading globals with explicit initializers... 
GPGPU-Sim PTX: finished loading globals (0 bytes total).
GPGPU-Sim PTX: loading constants with explicit initializers...  done.

Grid dimensions: 100 x 100 x 100
GPGPU-Sim PTX: cudaMallocPitch (width = 400)
GPGPU-Sim PTX: cudaMallocPitch (width = 400)
GPGPU-Sim: synchronize waiting for inactive GPU simulation
GPGPU-Sim API: Stream Manager State
GPGPU-Sim: detected inactive GPU simulation thread

Copy u1 to device: 74.912003 (ms) 

 dimGrid  = 4 25 1 
 dimBlock = 32 4 1 
GPGPU-Sim: synchronize waiting for inactive GPU simulation
GPGPU-Sim API: Stream Manager State
GPGPU-Sim: detected inactive GPU simulation thread

GPGPU-Sim PTX: cudaLaunch for 0x0x40566f (mode=performance simulation) on stream 0
GPGPU-Sim PTX: pushing kernel '_Z13GPU_laplace3diiiiPfS_' to stream 0, gridDim= (4,25,1) blockDim = (32,4,1) 
kernel '_Z13GPU_laplace3diiiiPfS_' transfer to GPU hardware scheduler
GPGPU-Sim uArch: Shader 1 bind to kernel 1 '_Z13GPU_laplace3diiiiPfS_'
GPGPU-Sim uArch: CTA/core = 8, limited by: cta_limit
GPGPU-Sim uArch: core:  1, cta: 0 initialized @(1,0)
GPGPU-Sim uArch: Shader 2 bind to kernel 1 '_Z13GPU_laplace3diiiiPfS_'
GPGPU-Sim uArch: core:  2, cta: 0 initialized @(1,0)
GPGPU-Sim uArch: Shader 3 bind to kernel 1 '_Z13GPU_laplace3diiiiPfS_'
GPGPU-Sim uArch: core:  3, cta: 0 initialized @(1,0)
GPGPU-Sim uArch: Shader 4 bind to kernel 1 '_Z13GPU_laplace3diiiiPfS_'
GPGPU-Sim uArch: core:  4, cta: 0 initialized @(1,0)
GPGPU-Sim uArch: Shader 5 bind to kernel 1 '_Z13GPU_laplace3diiiiPfS_'
GPGPU-Sim uArch: core:  5, cta: 0 initialized @(1,0)
GPGPU-Sim uArch: Shader 6 bind to kernel 1 '_Z13GPU_laplace3diiiiPfS_'
GPGPU-Sim uArch: core:  6, cta: 0 initialized @(1,0)
GPGPU-Sim uArch: Shader 7 bind to kernel 1 '_Z13GPU_laplace3diiiiPfS_'
GPGPU-Sim uArch: core:  7, cta: 0 initialized @(1,0)
GPGPU-Sim uArch: Shader 8 bind to kernel 1 '_Z13GPU_laplace3diiiiPfS_'
GPGPU-Sim uArch: core:  8, cta: 0 initialized @(1,0)
GPGPU-Sim uArch: Shader 9 bind to kernel 1 '_Z13GPU_laplace3diiiiPfS_'
GPGPU-Sim uArch: core:  9, cta: 0 initialized @(1,0)
GPGPU-Sim uArch: Shader 10 bind to kernel 1 '_Z13GPU_laplace3diiiiPfS_'
GPGPU-Sim uArch: core: 10, cta: 0 initialized @(1,0)
GPGPU-Sim uArch: Shader 11 bind to kernel 1 '_Z13GPU_laplace3diiiiPfS_'
GPGPU-Sim uArch: core: 11, cta: 0 initialized @(1,0)
GPGPU-Sim uArch: Shader 12 bind to kernel 1 '_Z13GPU_laplace3diiiiPfS_'
GPGPU-Sim uArch: core: 12, cta: 0 initialized @(1,0)
GPGPU-Sim uArch: Shader 13 bind to kernel 1 '_Z13GPU_laplace3diiiiPfS_'
GPGPU-Sim uArch: core: 13, cta: 0 initialized @(1,0)
GPGPU-Sim uArch: Shader 14 bind to kernel 1 '_Z13GPU_laplace3diiiiPfS_'
GPGPU-Sim uArch: core: 14, cta: 0 initialized @(1,0)
GPGPU-Sim uArch: Shader 0 bind to kernel 1 '_Z13GPU_laplace3diiiiPfS_'
GPGPU-Sim uArch: core:  0, cta: 0 initialized @(1,0)
GPGPU-Sim uArch: core:  1, cta: 1 initialized @(2,0)
GPGPU-Sim uArch: core:  2, cta: 1 initialized @(2,0)
GPGPU-Sim uArch: core:  3, cta: 1 initialized @(2,0)
GPGPU-Sim uArch: core:  4, cta: 1 initialized @(2,0)
GPGPU-Sim uArch: core:  5, cta: 1 initialized @(2,0)
GPGPU-Sim uArch: core:  6, cta: 1 initialized @(2,0)
GPGPU-Sim uArch: core:  7, cta: 1 initialized @(2,0)
GPGPU-Sim uArch: core:  8, cta: 1 initialized @(2,0)
GPGPU-Sim uArch: core:  9, cta: 1 initialized @(2,0)
GPGPU-Sim uArch: core: 10, cta: 1 initialized @(2,0)
GPGPU-Sim uArch: core: 11, cta: 1 initialized @(2,0)
GPGPU-Sim uArch: core: 12, cta: 1 initialized @(2,0)
GPGPU-Sim uArch: core: 13, cta: 1 initialized @(2,0)
GPGPU-Sim uArch: core: 14, cta: 1 initialized @(2,0)
GPGPU-Sim uArch: core:  0, cta: 1 initialized @(2,0)
GPGPU-Sim uArch: core:  1, cta: 2 initialized @(3,0)
GPGPU-Sim uArch: core:  2, cta: 2 initialized @(3,0)
GPGPU-Sim uArch: core:  3, cta: 2 initialized @(3,0)
GPGPU-Sim uArch: core:  4, cta: 2 initialized @(3,0)
GPGPU-Sim uArch: core:  5, cta: 2 initialized @(3,0)
GPGPU-Sim uArch: core:  6, cta: 2 initialized @(3,0)
GPGPU-Sim uArch: core:  7, cta: 2 initialized @(3,0)
GPGPU-Sim uArch: core:  8, cta: 2 initialized @(3,0)
GPGPU-Sim uArch: core:  9, cta: 2 initialized @(3,0)
GPGPU-Sim uArch: core: 10, cta: 2 initialized @(3,0)
GPGPU-Sim uArch: core: 11, cta: 2 initialized @(3,0)
GPGPU-Sim uArch: core: 12, cta: 2 initialized @(3,0)
GPGPU-Sim uArch: core: 13, cta: 2 initialized @(3,0)
GPGPU-Sim uArch: core: 14, cta: 2 initialized @(3,0)
GPGPU-Sim uArch: core:  0, cta: 2 initialized @(3,0)
GPGPU-Sim uArch: core:  1, cta: 3 initialized @(4,0)
GPGPU-Sim uArch: core:  2, cta: 3 initialized @(4,0)
GPGPU-Sim uArch: core:  3, cta: 3 initialized @(4,0)
GPGPU-Sim uArch: core:  4, cta: 3 initialized @(4,0)
GPGPU-Sim uArch: core:  5, cta: 3 initialized @(4,0)
GPGPU-Sim uArch: core:  6, cta: 3 initialized @(4,0)
GPGPU-Sim uArch: core:  7, cta: 3 initialized @(4,0)
GPGPU-Sim uArch: core:  8, cta: 3 initialized @(4,0)
GPGPU-Sim uArch: core:  9, cta: 3 initialized @(4,0)
GPGPU-Sim uArch: core: 10, cta: 3 initialized @(4,0)
GPGPU-Sim uArch: core: 11, cta: 3 initialized @(4,0)
GPGPU-Sim uArch: core: 12, cta: 3 initialized @(4,0)
GPGPU-Sim uArch: core: 13, cta: 3 initialized @(4,0)
GPGPU-Sim uArch: core: 14, cta: 3 initialized @(4,0)
GPGPU-Sim uArch: core:  0, cta: 3 initialized @(4,0)
GPGPU-Sim uArch: core:  1, cta: 4 initialized @(5,0)
GPGPU-Sim uArch: core:  2, cta: 4 initialized @(5,0)
GPGPU-Sim uArch: core:  3, cta: 4 initialized @(5,0)
GPGPU-Sim uArch: core:  4, cta: 4 initialized @(5,0)
GPGPU-Sim uArch: core:  5, cta: 4 initialized @(5,0)
GPGPU-Sim uArch: core:  6, cta: 4 initialized @(5,0)
GPGPU-Sim uArch: core:  7, cta: 4 initialized @(5,0)
GPGPU-Sim uArch: core:  8, cta: 4 initialized @(5,0)
GPGPU-Sim uArch: core:  9, cta: 4 initialized @(5,0)
GPGPU-Sim uArch: core: 10, cta: 4 initialized @(5,0)
GPGPU-Sim uArch: core: 11, cta: 4 initialized @(5,0)
GPGPU-Sim uArch: core: 12, cta: 4 initialized @(5,0)
GPGPU-Sim uArch: core: 13, cta: 4 initialized @(5,0)
GPGPU-Sim uArch: core: 14, cta: 4 initialized @(5,0)
GPGPU-Sim uArch: core:  0, cta: 4 initialized @(5,0)
GPGPU-Sim uArch: core:  1, cta: 5 initialized @(6,0)
GPGPU-Sim uArch: core:  2, cta: 5 initialized @(6,0)
GPGPU-Sim uArch: core:  3, cta: 5 initialized @(6,0)
GPGPU-Sim uArch: core:  4, cta: 5 initialized @(6,0)
GPGPU-Sim uArch: core:  5, cta: 5 initialized @(6,0)
GPGPU-Sim uArch: core:  6, cta: 5 initialized @(6,0)
GPGPU-Sim uArch: core:  7, cta: 5 initialized @(6,0)
GPGPU-Sim uArch: core:  8, cta: 5 initialized @(6,0)
GPGPU-Sim uArch: core:  9, cta: 5 initialized @(6,0)
GPGPU-Sim uArch: core: 10, cta: 5 initialized @(6,0)
GPGPU-Sim uArch: core: 11, cta: 5 initialized @(6,0)
GPGPU-Sim uArch: core: 12, cta: 5 initialized @(6,0)
GPGPU-Sim uArch: core: 13, cta: 5 initialized @(6,0)
GPGPU-Sim uArch: core: 14, cta: 5 initialized @(6,0)
GPGPU-Sim uArch: core:  0, cta: 5 initialized @(6,0)
GPGPU-Sim uArch: core:  1, cta: 6 initialized @(7,0)
GPGPU-Sim uArch: core:  2, cta: 6 initialized @(7,0)
GPGPU-Sim uArch: core:  3, cta: 6 initialized @(7,0)
GPGPU-Sim uArch: core:  4, cta: 6 initialized @(7,0)
GPGPU-Sim uArch: core:  5, cta: 6 initialized @(7,0)
GPGPU-Sim uArch: core:  6, cta: 6 initialized @(7,0)
GPGPU-Sim uArch: core:  7, cta: 6 initialized @(7,0)
GPGPU-Sim uArch: core:  8, cta: 6 initialized @(7,0)
GPGPU-Sim uArch: core:  9, cta: 6 initialized @(7,0)
GPGPU-Sim uArch: core: 10, cta: 6 initialized @(7,0)
GPGPU-Sim PTX: 100000 instructions simulated : ctaid=(1,4,0) tid=(31,1,0)
GPGPU-Sim uArch: cycles simulated: 500  inst.: 109668 (ipc=219.3) sim_rate=109668 (inst/sec) elapsed = 0:0:00:01 / Tue Apr 16 16:49:24 2019
GPGPU-Sim PTX: 200000 instructions simulated : ctaid=(2,22,0) tid=(19,2,0)
GPGPU-Sim PTX: 300000 instructions simulated : ctaid=(0,11,0) tid=(31,3,0)
GPGPU-Sim PTX: 400000 instructions simulated : ctaid=(0,23,0) tid=(15,1,0)
GPGPU-Sim uArch: cycles simulated: 1500  inst.: 424724 (ipc=283.1) sim_rate=212362 (inst/sec) elapsed = 0:0:00:02 / Tue Apr 16 16:49:25 2019
GPGPU-Sim PTX: 500000 instructions simulated : ctaid=(3,12,0) tid=(23,0,0)
GPGPU-Sim PTX: 600000 instructions simulated : ctaid=(3,12,0) tid=(11,1,0)
GPGPU-Sim PTX: 700000 instructions simulated : ctaid=(1,16,0) tid=(7,1,0)
GPGPU-Sim PTX: 800000 instructions simulated : ctaid=(3,2,0) tid=(31,1,0)
GPGPU-Sim PTX: 900000 instructions simulated : ctaid=(2,18,0) tid=(5,1,0)
GPGPU-Sim PTX: 1000000 instructions simulated : ctaid=(0,1,0) tid=(30,1,0)
GPGPU-Sim uArch: cycles simulated: 2500  inst.: 1000580 (ipc=400.2) sim_rate=333526 (inst/sec) elapsed = 0:0:00:03 / Tue Apr 16 16:49:26 2019
GPGPU-Sim PTX: 1100000 instructions simulated : ctaid=(1,24,0) tid=(7,3,0)
GPGPU-Sim PTX: 1200000 instructions simulated : ctaid=(0,15,0) tid=(25,0,0)
GPGPU-Sim uArch: cycles simulated: 3000  inst.: 1210792 (ipc=403.6) sim_rate=302698 (inst/sec) elapsed = 0:0:00:04 / Tue Apr 16 16:49:27 2019
GPGPU-Sim PTX: 1300000 instructions simulated : ctaid=(1,7,0) tid=(15,1,0)
GPGPU-Sim PTX: 1400000 instructions simulated : ctaid=(1,10,0) tid=(21,1,0)
GPGPU-Sim uArch: cycles simulated: 4000  inst.: 1397771 (ipc=349.4) sim_rate=279554 (inst/sec) elapsed = 0:0:00:05 / Tue Apr 16 16:49:28 2019
GPGPU-Sim PTX: 1500000 instructions simulated : ctaid=(0,18,0) tid=(13,0,0)
GPGPU-Sim PTX: 1600000 instructions simulated : ctaid=(2,24,0) tid=(4,1,0)
GPGPU-Sim PTX: 1700000 instructions simulated : ctaid=(1,7,0) tid=(31,2,0)
GPGPU-Sim PTX: 1800000 instructions simulated : ctaid=(2,17,0) tid=(7,1,0)
GPGPU-Sim PTX: 1900000 instructions simulated : ctaid=(0,9,0) tid=(15,3,0)
GPGPU-Sim uArch: cycles simulated: 5500  inst.: 1821322 (ipc=331.1) sim_rate=303553 (inst/sec) elapsed = 0:0:00:06 / Tue Apr 16 16:49:29 2019
GPGPU-Sim uArch: cycles simulated: 6000  inst.: 1837748 (ipc=306.3) sim_rate=262535 (inst/sec) elapsed = 0:0:00:07 / Tue Apr 16 16:49:30 2019
GPGPU-Sim PTX: 2000000 instructions simulated : ctaid=(1,19,0) tid=(21,1,0)
GPGPU-Sim PTX: 2100000 instructions simulated : ctaid=(0,20,0) tid=(18,0,0)
GPGPU-Sim PTX: 2200000 instructions simulated : ctaid=(1,13,0) tid=(29,0,0)
GPGPU-Sim PTX: 2300000 instructions simulated : ctaid=(0,3,0) tid=(1,1,0)
GPGPU-Sim uArch: cycles simulated: 7000  inst.: 2146669 (ipc=306.7) sim_rate=268333 (inst/sec) elapsed = 0:0:00:08 / Tue Apr 16 16:49:31 2019
GPGPU-Sim PTX: 2400000 instructions simulated : ctaid=(1,0,0) tid=(17,2,0)
GPGPU-Sim PTX: 2500000 instructions simulated : ctaid=(0,11,0) tid=(26,2,0)
GPGPU-Sim PTX: 2600000 instructions simulated : ctaid=(1,6,0) tid=(26,2,0)
GPGPU-Sim uArch: cycles simulated: 7500  inst.: 2454367 (ipc=327.2) sim_rate=272707 (inst/sec) elapsed = 0:0:00:09 / Tue Apr 16 16:49:32 2019
GPGPU-Sim PTX: 2700000 instructions simulated : ctaid=(3,4,0) tid=(6,0,0)
GPGPU-Sim PTX: 2800000 instructions simulated : ctaid=(2,1,0) tid=(28,1,0)
GPGPU-Sim PTX: 2900000 instructions simulated : ctaid=(0,7,0) tid=(25,2,0)
GPGPU-Sim uArch: cycles simulated: 8500  inst.: 2730135 (ipc=321.2) sim_rate=273013 (inst/sec) elapsed = 0:0:00:10 / Tue Apr 16 16:49:33 2019
GPGPU-Sim PTX: 3000000 instructions simulated : ctaid=(1,0,0) tid=(8,0,0)
GPGPU-Sim PTX: 3100000 instructions simulated : ctaid=(1,21,0) tid=(17,2,0)
GPGPU-Sim PTX: 3200000 instructions simulated : ctaid=(2,8,0) tid=(10,1,0)
GPGPU-Sim PTX: 3300000 instructions simulated : ctaid=(0,6,0) tid=(11,2,0)
GPGPU-Sim uArch: cycles simulated: 9000  inst.: 3002429 (ipc=333.6) sim_rate=272948 (inst/sec) elapsed = 0:0:00:11 / Tue Apr 16 16:49:34 2019
GPGPU-Sim PTX: 3400000 instructions simulated : ctaid=(1,9,0) tid=(9,1,0)
GPGPU-Sim PTX: 3500000 instructions simulated : ctaid=(1,10,0) tid=(17,0,0)
GPGPU-Sim PTX: 3600000 instructions simulated : ctaid=(2,23,0) tid=(3,1,0)
GPGPU-Sim uArch: cycles simulated: 9500  inst.: 3278565 (ipc=345.1) sim_rate=273213 (inst/sec) elapsed = 0:0:00:12 / Tue Apr 16 16:49:35 2019
GPGPU-Sim PTX: 3700000 instructions simulated : ctaid=(1,24,0) tid=(9,1,0)
GPGPU-Sim PTX: 3800000 instructions simulated : ctaid=(3,5,0) tid=(2,1,0)
GPGPU-Sim PTX: 3900000 instructions simulated : ctaid=(0,20,0) tid=(1,3,0)
GPGPU-Sim PTX: 4000000 instructions simulated : ctaid=(2,14,0) tid=(9,0,0)
GPGPU-Sim uArch: cycles simulated: 10500  inst.: 3699917 (ipc=352.4) sim_rate=284609 (inst/sec) elapsed = 0:0:00:13 / Tue Apr 16 16:49:36 2019
GPGPU-Sim PTX: 4100000 instructions simulated : ctaid=(0,10,0) tid=(19,0,0)
GPGPU-Sim PTX: 4200000 instructions simulated : ctaid=(2,10,0) tid=(16,0,0)
GPGPU-Sim PTX: 4300000 instructions simulated : ctaid=(0,5,0) tid=(25,0,0)
GPGPU-Sim PTX: 4400000 instructions simulated : ctaid=(0,19,0) tid=(21,2,0)
GPGPU-Sim uArch: cycles simulated: 11000  inst.: 3985570 (ipc=362.3) sim_rate=284683 (inst/sec) elapsed = 0:0:00:14 / Tue Apr 16 16:49:37 2019
GPGPU-Sim PTX: 4500000 instructions simulated : ctaid=(0,5,0) tid=(28,0,0)
GPGPU-Sim PTX: 4600000 instructions simulated : ctaid=(0,4,0) tid=(5,0,0)
GPGPU-Sim uArch: cycles simulated: 11500  inst.: 4239614 (ipc=368.7) sim_rate=282640 (inst/sec) elapsed = 0:0:00:15 / Tue Apr 16 16:49:38 2019
GPGPU-Sim PTX: 4700000 instructions simulated : ctaid=(2,9,0) tid=(2,2,0)
GPGPU-Sim PTX: 4800000 instructions simulated : ctaid=(3,10,0) tid=(3,3,0)
GPGPU-Sim PTX: 4900000 instructions simulated : ctaid=(0,5,0) tid=(14,3,0)
GPGPU-Sim uArch: cycles simulated: 12000  inst.: 4470309 (ipc=372.5) sim_rate=279394 (inst/sec) elapsed = 0:0:00:16 / Tue Apr 16 16:49:39 2019
GPGPU-Sim PTX: 5000000 instructions simulated : ctaid=(2,24,0) tid=(31,2,0)
GPGPU-Sim PTX: 5100000 instructions simulated : ctaid=(0,12,0) tid=(11,2,0)
GPGPU-Sim PTX: 5200000 instructions simulated : ctaid=(1,17,0) tid=(8,3,0)
GPGPU-Sim uArch: cycles simulated: 12500  inst.: 4743066 (ipc=379.4) sim_rate=279003 (inst/sec) elapsed = 0:0:00:17 / Tue Apr 16 16:49:40 2019
GPGPU-Sim PTX: 5300000 instructions simulated : ctaid=(1,5,0) tid=(15,3,0)
GPGPU-Sim PTX: 5400000 instructions simulated : ctaid=(2,3,0) tid=(26,1,0)
GPGPU-Sim PTX: 5500000 instructions simulated : ctaid=(2,11,0) tid=(19,1,0)
GPGPU-Sim PTX: 5600000 instructions simulated : ctaid=(0,11,0) tid=(13,1,0)
GPGPU-Sim PTX: 5700000 instructions simulated : ctaid=(3,15,0) tid=(30,1,0)
GPGPU-Sim PTX: 5800000 instructions simulated : ctaid=(1,12,0) tid=(8,0,0)
GPGPU-Sim uArch: cycles simulated: 13500  inst.: 5275966 (ipc=390.8) sim_rate=293109 (inst/sec) elapsed = 0:0:00:18 / Tue Apr 16 16:49:41 2019
GPGPU-Sim PTX: 5900000 instructions simulated : ctaid=(2,14,0) tid=(24,0,0)
GPGPU-Sim PTX: 6000000 instructions simulated : ctaid=(1,3,0) tid=(17,3,0)
GPGPU-Sim PTX: 6100000 instructions simulated : ctaid=(1,21,0) tid=(11,3,0)
GPGPU-Sim uArch: cycles simulated: 14000  inst.: 5519022 (ipc=394.2) sim_rate=290474 (inst/sec) elapsed = 0:0:00:19 / Tue Apr 16 16:49:42 2019
GPGPU-Sim PTX: 6200000 instructions simulated : ctaid=(2,11,0) tid=(20,1,0)
GPGPU-Sim PTX: 6300000 instructions simulated : ctaid=(1,8,0) tid=(1,3,0)
GPGPU-Sim PTX: 6400000 instructions simulated : ctaid=(1,8,0) tid=(1,3,0)
GPGPU-Sim uArch: cycles simulated: 14500  inst.: 5798494 (ipc=399.9) sim_rate=289924 (inst/sec) elapsed = 0:0:00:20 / Tue Apr 16 16:49:43 2019
GPGPU-Sim PTX: 6500000 instructions simulated : ctaid=(2,24,0) tid=(22,0,0)
GPGPU-Sim PTX: 6600000 instructions simulated : ctaid=(3,3,0) tid=(31,0,0)
GPGPU-Sim PTX: 6700000 instructions simulated : ctaid=(0,15,0) tid=(24,2,0)
GPGPU-Sim uArch: cycles simulated: 15000  inst.: 6064041 (ipc=404.3) sim_rate=288763 (inst/sec) elapsed = 0:0:00:21 / Tue Apr 16 16:49:44 2019
GPGPU-Sim PTX: 6800000 instructions simulated : ctaid=(1,22,0) tid=(10,2,0)
GPGPU-Sim PTX: 6900000 instructions simulated : ctaid=(0,6,0) tid=(6,0,0)
GPGPU-Sim PTX: 7000000 instructions simulated : ctaid=(3,21,0) tid=(1,3,0)
GPGPU-Sim PTX: 7100000 instructions simulated : ctaid=(1,4,0) tid=(9,3,0)
GPGPU-Sim PTX: 7200000 instructions simulated : ctaid=(0,18,0) tid=(6,0,0)
GPGPU-Sim PTX: 7300000 instructions simulated : ctaid=(1,8,0) tid=(22,3,0)
GPGPU-Sim uArch: cycles simulated: 16000  inst.: 6584297 (ipc=411.5) sim_rate=299286 (inst/sec) elapsed = 0:0:00:22 / Tue Apr 16 16:49:45 2019
GPGPU-Sim PTX: 7400000 instructions simulated : ctaid=(0,14,0) tid=(27,0,0)
GPGPU-Sim PTX: 7500000 instructions simulated : ctaid=(0,5,0) tid=(14,1,0)
GPGPU-Sim PTX: 7600000 instructions simulated : ctaid=(0,1,0) tid=(2,0,0)
GPGPU-Sim uArch: cycles simulated: 16500  inst.: 6841764 (ipc=414.7) sim_rate=297468 (inst/sec) elapsed = 0:0:00:23 / Tue Apr 16 16:49:46 2019
GPGPU-Sim PTX: 7700000 instructions simulated : ctaid=(2,22,0) tid=(23,2,0)
GPGPU-Sim PTX: 7800000 instructions simulated : ctaid=(2,1,0) tid=(20,3,0)
GPGPU-Sim uArch: cycles simulated: 17000  inst.: 7075583 (ipc=416.2) sim_rate=294815 (inst/sec) elapsed = 0:0:00:24 / Tue Apr 16 16:49:47 2019
GPGPU-Sim PTX: 7900000 instructions simulated : ctaid=(1,24,0) tid=(14,1,0)
GPGPU-Sim PTX: 8000000 instructions simulated : ctaid=(1,10,0) tid=(29,2,0)
GPGPU-Sim PTX: 8100000 instructions simulated : ctaid=(2,13,0) tid=(6,0,0)
GPGPU-Sim PTX: 8200000 instructions simulated : ctaid=(1,23,0) tid=(30,1,0)
GPGPU-Sim uArch: cycles simulated: 17500  inst.: 7359181 (ipc=420.5) sim_rate=294367 (inst/sec) elapsed = 0:0:00:25 / Tue Apr 16 16:49:48 2019
GPGPU-Sim PTX: 8300000 instructions simulated : ctaid=(1,13,0) tid=(9,2,0)
GPGPU-Sim PTX: 8400000 instructions simulated : ctaid=(1,15,0) tid=(29,2,0)
GPGPU-Sim PTX: 8500000 instructions simulated : ctaid=(0,22,0) tid=(12,1,0)
GPGPU-Sim PTX: 8600000 instructions simulated : ctaid=(2,12,0) tid=(1,3,0)
GPGPU-Sim PTX: 8700000 instructions simulated : ctaid=(2,11,0) tid=(8,2,0)
GPGPU-Sim uArch: cycles simulated: 18500  inst.: 7862712 (ipc=425.0) sim_rate=302412 (inst/sec) elapsed = 0:0:00:26 / Tue Apr 16 16:49:49 2019
GPGPU-Sim PTX: 8800000 instructions simulated : ctaid=(1,1,0) tid=(21,3,0)
GPGPU-Sim PTX: 8900000 instructions simulated : ctaid=(1,21,0) tid=(25,3,0)
GPGPU-Sim PTX: 9000000 instructions simulated : ctaid=(1,11,0) tid=(3,2,0)
GPGPU-Sim uArch: cycles simulated: 19000  inst.: 8131959 (ipc=428.0) sim_rate=301183 (inst/sec) elapsed = 0:0:00:27 / Tue Apr 16 16:49:50 2019
GPGPU-Sim PTX: 9100000 instructions simulated : ctaid=(1,13,0) tid=(26,3,0)
GPGPU-Sim PTX: 9200000 instructions simulated : ctaid=(2,11,0) tid=(6,2,0)
GPGPU-Sim PTX: 9300000 instructions simulated : ctaid=(0,4,0) tid=(13,0,0)
GPGPU-Sim uArch: cycles simulated: 19500  inst.: 8415540 (ipc=431.6) sim_rate=300555 (inst/sec) elapsed = 0:0:00:28 / Tue Apr 16 16:49:51 2019
GPGPU-Sim PTX: 9400000 instructions simulated : ctaid=(2,10,0) tid=(10,3,0)
GPGPU-Sim PTX: 9500000 instructions simulated : ctaid=(0,20,0) tid=(29,1,0)
GPGPU-Sim PTX: 9600000 instructions simulated : ctaid=(2,9,0) tid=(8,1,0)
GPGPU-Sim uArch: cycles simulated: 20000  inst.: 8658982 (ipc=432.9) sim_rate=298585 (inst/sec) elapsed = 0:0:00:29 / Tue Apr 16 16:49:52 2019
GPGPU-Sim PTX: 9700000 instructions simulated : ctaid=(1,23,0) tid=(11,0,0)
GPGPU-Sim PTX: 9800000 instructions simulated : ctaid=(0,6,0) tid=(19,0,0)
GPGPU-Sim PTX: 9900000 instructions simulated : ctaid=(0,21,0) tid=(20,1,0)
GPGPU-Sim PTX: 10000000 instructions simulated : ctaid=(2,10,0) tid=(15,3,0)
GPGPU-Sim PTX: 10100000 instructions simulated : ctaid=(2,16,0) tid=(18,0,0)
GPGPU-Sim PTX: 10200000 instructions simulated : ctaid=(1,7,0) tid=(16,0,0)
GPGPU-Sim uArch: cycles simulated: 21000  inst.: 9193665 (ipc=437.8) sim_rate=306455 (inst/sec) elapsed = 0:0:00:30 / Tue Apr 16 16:49:53 2019
GPGPU-Sim PTX: 10300000 instructions simulated : ctaid=(2,22,0) tid=(0,3,0)
GPGPU-Sim PTX: 10400000 instructions simulated : ctaid=(1,16,0) tid=(3,1,0)
GPGPU-Sim PTX: 10500000 instructions simulated : ctaid=(2,0,0) tid=(12,1,0)
GPGPU-Sim uArch: cycles simulated: 21500  inst.: 9434839 (ipc=438.8) sim_rate=304349 (inst/sec) elapsed = 0:0:00:31 / Tue Apr 16 16:49:54 2019
GPGPU-Sim PTX: 10600000 instructions simulated : ctaid=(2,3,0) tid=(18,0,0)
GPGPU-Sim PTX: 10700000 instructions simulated : ctaid=(2,16,0) tid=(24,0,0)
GPGPU-Sim PTX: 10800000 instructions simulated : ctaid=(1,18,0) tid=(24,3,0)
GPGPU-Sim uArch: cycles simulated: 22000  inst.: 9668011 (ipc=439.5) sim_rate=302125 (inst/sec) elapsed = 0:0:00:32 / Tue Apr 16 16:49:55 2019
GPGPU-Sim PTX: 10900000 instructions simulated : ctaid=(3,13,0) tid=(2,2,0)
GPGPU-Sim PTX: 11000000 instructions simulated : ctaid=(0,21,0) tid=(7,0,0)
GPGPU-Sim PTX: 11100000 instructions simulated : ctaid=(0,9,0) tid=(1,0,0)
GPGPU-Sim uArch: cycles simulated: 22500  inst.: 9952062 (ipc=442.3) sim_rate=301577 (inst/sec) elapsed = 0:0:00:33 / Tue Apr 16 16:49:56 2019
GPGPU-Sim PTX: 11200000 instructions simulated : ctaid=(3,22,0) tid=(10,2,0)
GPGPU-Sim PTX: 11300000 instructions simulated : ctaid=(0,1,0) tid=(8,0,0)
GPGPU-Sim PTX: 11400000 instructions simulated : ctaid=(2,9,0) tid=(6,0,0)
GPGPU-Sim PTX: 11500000 instructions simulated : ctaid=(1,15,0) tid=(0,2,0)
GPGPU-Sim PTX: 11600000 instructions simulated : ctaid=(1,8,0) tid=(22,0,0)
GPGPU-Sim uArch: cycles simulated: 23500  inst.: 10436233 (ipc=444.1) sim_rate=306948 (inst/sec) elapsed = 0:0:00:34 / Tue Apr 16 16:49:57 2019
GPGPU-Sim PTX: 11700000 instructions simulated : ctaid=(2,11,0) tid=(23,3,0)
GPGPU-Sim PTX: 11800000 instructions simulated : ctaid=(0,6,0) tid=(11,2,0)
GPGPU-Sim PTX: 11900000 instructions simulated : ctaid=(0,8,0) tid=(21,2,0)
GPGPU-Sim uArch: cycles simulated: 24000  inst.: 10715431 (ipc=446.5) sim_rate=306155 (inst/sec) elapsed = 0:0:00:35 / Tue Apr 16 16:49:58 2019
GPGPU-Sim PTX: 12000000 instructions simulated : ctaid=(0,19,0) tid=(6,1,0)
GPGPU-Sim PTX: 12100000 instructions simulated : ctaid=(1,12,0) tid=(10,1,0)
GPGPU-Sim PTX: 12200000 instructions simulated : ctaid=(0,14,0) tid=(27,3,0)
GPGPU-Sim uArch: cycles simulated: 24500  inst.: 10986105 (ipc=448.4) sim_rate=305169 (inst/sec) elapsed = 0:0:00:36 / Tue Apr 16 16:49:59 2019
GPGPU-Sim PTX: 12300000 instructions simulated : ctaid=(0,13,0) tid=(12,0,0)
GPGPU-Sim PTX: 12400000 instructions simulated : ctaid=(1,18,0) tid=(1,2,0)
GPGPU-Sim PTX: 12500000 instructions simulated : ctaid=(0,17,0) tid=(2,1,0)
GPGPU-Sim PTX: 12600000 instructions simulated : ctaid=(2,16,0) tid=(7,3,0)
GPGPU-Sim PTX: 12700000 instructions simulated : ctaid=(1,13,0) tid=(10,1,0)
GPGPU-Sim PTX: 12800000 instructions simulated : ctaid=(2,14,0) tid=(29,1,0)
GPGPU-Sim uArch: cycles simulated: 25500  inst.: 11462488 (ipc=449.5) sim_rate=309796 (inst/sec) elapsed = 0:0:00:37 / Tue Apr 16 16:50:00 2019
GPGPU-Sim PTX: 12900000 instructions simulated : ctaid=(0,5,0) tid=(22,1,0)
GPGPU-Sim PTX: 13000000 instructions simulated : ctaid=(0,5,0) tid=(10,3,0)
GPGPU-Sim PTX: 13100000 instructions simulated : ctaid=(1,24,0) tid=(27,3,0)
GPGPU-Sim uArch: cycles simulated: 26000  inst.: 11735349 (ipc=451.4) sim_rate=308824 (inst/sec) elapsed = 0:0:00:38 / Tue Apr 16 16:50:01 2019
GPGPU-Sim PTX: 13200000 instructions simulated : ctaid=(3,3,0) tid=(14,0,0)
GPGPU-Sim PTX: 13300000 instructions simulated : ctaid=(2,18,0) tid=(11,1,0)
GPGPU-Sim uArch: cycles simulated: 26500  inst.: 11960292 (ipc=451.3) sim_rate=306674 (inst/sec) elapsed = 0:0:00:39 / Tue Apr 16 16:50:02 2019
GPGPU-Sim PTX: 13400000 instructions simulated : ctaid=(2,12,0) tid=(18,0,0)
GPGPU-Sim PTX: 13500000 instructions simulated : ctaid=(1,6,0) tid=(6,3,0)
GPGPU-Sim PTX: 13600000 instructions simulated : ctaid=(0,0,0) tid=(31,2,0)
GPGPU-Sim PTX: 13700000 instructions simulated : ctaid=(2,13,0) tid=(24,1,0)
GPGPU-Sim uArch: cycles simulated: 27000  inst.: 12248756 (ipc=453.7) sim_rate=306218 (inst/sec) elapsed = 0:0:00:40 / Tue Apr 16 16:50:03 2019
GPGPU-Sim PTX: 13800000 instructions simulated : ctaid=(1,4,0) tid=(6,0,0)
GPGPU-Sim PTX: 13900000 instructions simulated : ctaid=(2,17,0) tid=(15,3,0)
GPGPU-Sim PTX: 14000000 instructions simulated : ctaid=(0,8,0) tid=(0,2,0)
GPGPU-Sim PTX: 14100000 instructions simulated : ctaid=(1,11,0) tid=(0,0,0)
GPGPU-Sim PTX: 14200000 instructions simulated : ctaid=(1,22,0) tid=(20,0,0)
GPGPU-Sim uArch: cycles simulated: 28000  inst.: 12733343 (ipc=454.8) sim_rate=310569 (inst/sec) elapsed = 0:0:00:41 / Tue Apr 16 16:50:04 2019
GPGPU-Sim PTX: 14300000 instructions simulated : ctaid=(1,2,0) tid=(8,0,0)
GPGPU-Sim PTX: 14400000 instructions simulated : ctaid=(1,14,0) tid=(21,3,0)
GPGPU-Sim PTX: 14500000 instructions simulated : ctaid=(3,14,0) tid=(5,3,0)
GPGPU-Sim uArch: cycles simulated: 28500  inst.: 13023381 (ipc=457.0) sim_rate=310080 (inst/sec) elapsed = 0:0:00:42 / Tue Apr 16 16:50:05 2019
GPGPU-Sim PTX: 14600000 instructions simulated : ctaid=(0,16,0) tid=(18,0,0)
GPGPU-Sim PTX: 14700000 instructions simulated : ctaid=(1,20,0) tid=(18,2,0)
GPGPU-Sim PTX: 14800000 instructions simulated : ctaid=(1,13,0) tid=(10,1,0)
GPGPU-Sim uArch: cycles simulated: 29000  inst.: 13260199 (ipc=457.2) sim_rate=308376 (inst/sec) elapsed = 0:0:00:43 / Tue Apr 16 16:50:06 2019
GPGPU-Sim PTX: 14900000 instructions simulated : ctaid=(1,17,0) tid=(9,0,0)
GPGPU-Sim PTX: 15000000 instructions simulated : ctaid=(1,3,0) tid=(0,0,0)
GPGPU-Sim PTX: 15100000 instructions simulated : ctaid=(0,7,0) tid=(11,3,0)
GPGPU-Sim uArch: cycles simulated: 29500  inst.: 13518524 (ipc=458.3) sim_rate=307239 (inst/sec) elapsed = 0:0:00:44 / Tue Apr 16 16:50:07 2019
GPGPU-Sim PTX: 15200000 instructions simulated : ctaid=(2,3,0) tid=(14,2,0)
GPGPU-Sim PTX: 15300000 instructions simulated : ctaid=(0,6,0) tid=(3,2,0)
GPGPU-Sim PTX: 15400000 instructions simulated : ctaid=(0,19,0) tid=(5,1,0)
GPGPU-Sim PTX: 15500000 instructions simulated : ctaid=(2,4,0) tid=(14,1,0)
GPGPU-Sim PTX: 15600000 instructions simulated : ctaid=(1,20,0) tid=(8,0,0)
GPGPU-Sim PTX: 15700000 instructions simulated : ctaid=(3,23,0) tid=(13,0,0)
GPGPU-Sim uArch: cycles simulated: 30500  inst.: 14032690 (ipc=460.1) sim_rate=311837 (inst/sec) elapsed = 0:0:00:45 / Tue Apr 16 16:50:08 2019
GPGPU-Sim PTX: 15800000 instructions simulated : ctaid=(1,0,0) tid=(6,0,0)
GPGPU-Sim PTX: 15900000 instructions simulated : ctaid=(1,19,0) tid=(8,0,0)
GPGPU-Sim PTX: 16000000 instructions simulated : ctaid=(2,15,0) tid=(26,0,0)
GPGPU-Sim uArch: cycles simulated: 31000  inst.: 14312684 (ipc=461.7) sim_rate=311145 (inst/sec) elapsed = 0:0:00:46 / Tue Apr 16 16:50:09 2019
GPGPU-Sim PTX: 16100000 instructions simulated : ctaid=(0,16,0) tid=(19,2,0)
GPGPU-Sim PTX: 16200000 instructions simulated : ctaid=(1,16,0) tid=(19,1,0)
GPGPU-Sim uArch: cycles simulated: 31500  inst.: 14549950 (ipc=461.9) sim_rate=309573 (inst/sec) elapsed = 0:0:00:47 / Tue Apr 16 16:50:10 2019
GPGPU-Sim PTX: 16300000 instructions simulated : ctaid=(2,16,0) tid=(27,0,0)
GPGPU-Sim PTX: 16400000 instructions simulated : ctaid=(2,19,0) tid=(17,0,0)
GPGPU-Sim PTX: 16500000 instructions simulated : ctaid=(2,4,0) tid=(12,3,0)
GPGPU-Sim PTX: 16600000 instructions simulated : ctaid=(0,17,0) tid=(30,0,0)
GPGPU-Sim uArch: cycles simulated: 32000  inst.: 14823115 (ipc=463.2) sim_rate=308814 (inst/sec) elapsed = 0:0:00:48 / Tue Apr 16 16:50:11 2019
GPGPU-Sim PTX: 16700000 instructions simulated : ctaid=(2,24,0) tid=(6,0,0)
GPGPU-Sim PTX: 16800000 instructions simulated : ctaid=(0,18,0) tid=(9,1,0)
GPGPU-Sim PTX: 16900000 instructions simulated : ctaid=(2,11,0) tid=(9,2,0)
GPGPU-Sim PTX: 17000000 instructions simulated : ctaid=(2,14,0) tid=(14,0,0)
GPGPU-Sim PTX: 17100000 instructions simulated : ctaid=(3,11,0) tid=(27,2,0)
GPGPU-Sim uArch: cycles simulated: 33000  inst.: 15318756 (ipc=464.2) sim_rate=312627 (inst/sec) elapsed = 0:0:00:49 / Tue Apr 16 16:50:12 2019
GPGPU-Sim PTX: 17200000 instructions simulated : ctaid=(2,24,0) tid=(21,0,0)
GPGPU-Sim PTX: 17300000 instructions simulated : ctaid=(3,6,0) tid=(3,2,0)
GPGPU-Sim PTX: 17400000 instructions simulated : ctaid=(0,24,0) tid=(7,3,0)
GPGPU-Sim uArch: cycles simulated: 33500  inst.: 15599590 (ipc=465.7) sim_rate=311991 (inst/sec) elapsed = 0:0:00:50 / Tue Apr 16 16:50:13 2019
GPGPU-Sim PTX: 17500000 instructions simulated : ctaid=(0,9,0) tid=(17,3,0)
GPGPU-Sim PTX: 17600000 instructions simulated : ctaid=(1,19,0) tid=(19,1,0)
GPGPU-Sim PTX: 17700000 instructions simulated : ctaid=(1,3,0) tid=(14,1,0)
GPGPU-Sim uArch: cycles simulated: 34000  inst.: 15873699 (ipc=466.9) sim_rate=311249 (inst/sec) elapsed = 0:0:00:51 / Tue Apr 16 16:50:14 2019
GPGPU-Sim PTX: 17800000 instructions simulated : ctaid=(0,9,0) tid=(13,0,0)
GPGPU-Sim PTX: 17900000 instructions simulated : ctaid=(2,12,0) tid=(1,2,0)
GPGPU-Sim PTX: 18000000 instructions simulated : ctaid=(2,19,0) tid=(31,3,0)
GPGPU-Sim PTX: 18100000 instructions simulated : ctaid=(2,21,0) tid=(13,1,0)
GPGPU-Sim PTX: 18200000 instructions simulated : ctaid=(1,2,0) tid=(4,1,0)
GPGPU-Sim PTX: 18300000 instructions simulated : ctaid=(1,13,0) tid=(31,1,0)
GPGPU-Sim uArch: cycles simulated: 35000  inst.: 16372174 (ipc=467.8) sim_rate=314849 (inst/sec) elapsed = 0:0:00:52 / Tue Apr 16 16:50:15 2019
GPGPU-Sim PTX: 18400000 instructions simulated : ctaid=(1,8,0) tid=(28,0,0)
GPGPU-Sim PTX: 18500000 instructions simulated : ctaid=(1,21,0) tid=(4,3,0)
GPGPU-Sim PTX: 18600000 instructions simulated : ctaid=(0,5,0) tid=(21,1,0)
GPGPU-Sim uArch: cycles simulated: 35500  inst.: 16638791 (ipc=468.7) sim_rate=313939 (inst/sec) elapsed = 0:0:00:53 / Tue Apr 16 16:50:16 2019
GPGPU-Sim PTX: 18700000 instructions simulated : ctaid=(1,23,0) tid=(0,1,0)
GPGPU-Sim PTX: 18800000 instructions simulated : ctaid=(1,4,0) tid=(7,0,0)
GPGPU-Sim PTX: 18900000 instructions simulated : ctaid=(1,12,0) tid=(25,2,0)
GPGPU-Sim uArch: cycles simulated: 36000  inst.: 16894111 (ipc=469.3) sim_rate=312853 (inst/sec) elapsed = 0:0:00:54 / Tue Apr 16 16:50:17 2019
GPGPU-Sim PTX: 19000000 instructions simulated : ctaid=(2,11,0) tid=(1,2,0)
GPGPU-Sim PTX: 19100000 instructions simulated : ctaid=(0,8,0) tid=(2,1,0)
GPGPU-Sim PTX: 19200000 instructions simulated : ctaid=(1,3,0) tid=(30,3,0)
GPGPU-Sim uArch: cycles simulated: 36500  inst.: 17173740 (ipc=470.5) sim_rate=312249 (inst/sec) elapsed = 0:0:00:55 / Tue Apr 16 16:50:18 2019
GPGPU-Sim PTX: 19300000 instructions simulated : ctaid=(0,4,0) tid=(7,0,0)
GPGPU-Sim PTX: 19400000 instructions simulated : ctaid=(0,11,0) tid=(18,2,0)
GPGPU-Sim PTX: 19500000 instructions simulated : ctaid=(1,5,0) tid=(7,1,0)
GPGPU-Sim PTX: 19600000 instructions simulated : ctaid=(2,2,0) tid=(26,3,0)
GPGPU-Sim PTX: 19700000 instructions simulated : ctaid=(1,19,0) tid=(5,0,0)
GPGPU-Sim PTX: 19800000 instructions simulated : ctaid=(2,3,0) tid=(2,2,0)
GPGPU-Sim uArch: cycles simulated: 37500  inst.: 17685727 (ipc=471.6) sim_rate=315816 (inst/sec) elapsed = 0:0:00:56 / Tue Apr 16 16:50:19 2019
GPGPU-Sim PTX: 19900000 instructions simulated : ctaid=(0,18,0) tid=(6,1,0)
GPGPU-Sim PTX: 20000000 instructions simulated : ctaid=(1,10,0) tid=(8,0,0)
GPGPU-Sim PTX: 20100000 instructions simulated : ctaid=(0,6,0) tid=(1,3,0)
GPGPU-Sim uArch: cycles simulated: 38000  inst.: 17970256 (ipc=472.9) sim_rate=315267 (inst/sec) elapsed = 0:0:00:57 / Tue Apr 16 16:50:20 2019
GPGPU-Sim PTX: 20200000 instructions simulated : ctaid=(3,12,0) tid=(28,3,0)
GPGPU-Sim PTX: 20300000 instructions simulated : ctaid=(3,9,0) tid=(10,2,0)
GPGPU-Sim PTX: 20400000 instructions simulated : ctaid=(2,20,0) tid=(6,1,0)
GPGPU-Sim uArch: cycles simulated: 38500  inst.: 18227537 (ipc=473.4) sim_rate=314267 (inst/sec) elapsed = 0:0:00:58 / Tue Apr 16 16:50:21 2019
GPGPU-Sim PTX: 20500000 instructions simulated : ctaid=(2,13,0) tid=(5,0,0)
GPGPU-Sim PTX: 20600000 instructions simulated : ctaid=(0,2,0) tid=(26,3,0)
GPGPU-Sim uArch: cycles simulated: 39000  inst.: 18451302 (ipc=473.1) sim_rate=312733 (inst/sec) elapsed = 0:0:00:59 / Tue Apr 16 16:50:22 2019
GPGPU-Sim PTX: 20700000 instructions simulated : ctaid=(0,10,0) tid=(26,1,0)
GPGPU-Sim PTX: 20800000 instructions simulated : ctaid=(1,5,0) tid=(22,0,0)
GPGPU-Sim PTX: 20900000 instructions simulated : ctaid=(0,10,0) tid=(16,2,0)
GPGPU-Sim PTX: 21000000 instructions simulated : ctaid=(0,19,0) tid=(28,2,0)
GPGPU-Sim PTX: 21100000 instructions simulated : ctaid=(1,15,0) tid=(23,1,0)
GPGPU-Sim PTX: 21200000 instructions simulated : ctaid=(1,13,0) tid=(7,2,0)
GPGPU-Sim uArch: cycles simulated: 40000  inst.: 18993517 (ipc=474.8) sim_rate=316558 (inst/sec) elapsed = 0:0:01:00 / Tue Apr 16 16:50:23 2019
GPGPU-Sim PTX: 21300000 instructions simulated : ctaid=(0,20,0) tid=(27,1,0)
GPGPU-Sim PTX: 21400000 instructions simulated : ctaid=(0,12,0) tid=(17,3,0)
GPGPU-Sim PTX: 21500000 instructions simulated : ctaid=(3,22,0) tid=(8,2,0)
GPGPU-Sim uArch: cycles simulated: 40500  inst.: 19214126 (ipc=474.4) sim_rate=314985 (inst/sec) elapsed = 0:0:01:01 / Tue Apr 16 16:50:24 2019
GPGPU-Sim PTX: 21600000 instructions simulated : ctaid=(0,5,0) tid=(17,0,0)
GPGPU-Sim PTX: 21700000 instructions simulated : ctaid=(1,16,0) tid=(15,3,0)
GPGPU-Sim PTX: 21800000 instructions simulated : ctaid=(3,10,0) tid=(3,3,0)
GPGPU-Sim uArch: cycles simulated: 41000  inst.: 19509360 (ipc=475.8) sim_rate=314667 (inst/sec) elapsed = 0:0:01:02 / Tue Apr 16 16:50:25 2019
GPGPU-Sim PTX: 21900000 instructions simulated : ctaid=(2,19,0) tid=(20,2,0)
GPGPU-Sim PTX: 22000000 instructions simulated : ctaid=(1,10,0) tid=(0,1,0)
GPGPU-Sim PTX: 22100000 instructions simulated : ctaid=(1,3,0) tid=(6,1,0)
GPGPU-Sim uArch: cycles simulated: 41500  inst.: 19770075 (ipc=476.4) sim_rate=313810 (inst/sec) elapsed = 0:0:01:03 / Tue Apr 16 16:50:26 2019
GPGPU-Sim PTX: 22200000 instructions simulated : ctaid=(0,18,0) tid=(11,0,0)
GPGPU-Sim PTX: 22300000 instructions simulated : ctaid=(2,14,0) tid=(14,1,0)
GPGPU-Sim PTX: 22400000 instructions simulated : ctaid=(1,15,0) tid=(25,2,0)
GPGPU-Sim PTX: 22500000 instructions simulated : ctaid=(0,10,0) tid=(16,1,0)
GPGPU-Sim PTX: 22600000 instructions simulated : ctaid=(0,16,0) tid=(13,0,0)
GPGPU-Sim PTX: 22700000 instructions simulated : ctaid=(1,8,0) tid=(4,2,0)
GPGPU-Sim uArch: cycles simulated: 42500  inst.: 20287324 (ipc=477.3) sim_rate=316989 (inst/sec) elapsed = 0:0:01:04 / Tue Apr 16 16:50:27 2019
GPGPU-Sim PTX: 22800000 instructions simulated : ctaid=(0,8,0) tid=(1,1,0)
GPGPU-Sim PTX: 22900000 instructions simulated : ctaid=(2,19,0) tid=(8,3,0)
GPGPU-Sim PTX: 23000000 instructions simulated : ctaid=(1,1,0) tid=(28,2,0)
GPGPU-Sim uArch: cycles simulated: 43000  inst.: 20525547 (ipc=477.3) sim_rate=315777 (inst/sec) elapsed = 0:0:01:05 / Tue Apr 16 16:50:28 2019
GPGPU-Sim PTX: 23100000 instructions simulated : ctaid=(2,18,0) tid=(17,3,0)
GPGPU-Sim PTX: 23200000 instructions simulated : ctaid=(1,2,0) tid=(21,1,0)
GPGPU-Sim PTX: 23300000 instructions simulated : ctaid=(1,9,0) tid=(19,2,0)
GPGPU-Sim uArch: cycles simulated: 43500  inst.: 20790737 (ipc=477.9) sim_rate=315011 (inst/sec) elapsed = 0:0:01:06 / Tue Apr 16 16:50:29 2019
GPGPU-Sim PTX: 23400000 instructions simulated : ctaid=(0,13,0) tid=(17,1,0)
GPGPU-Sim PTX: 23500000 instructions simulated : ctaid=(2,18,0) tid=(24,0,0)
GPGPU-Sim PTX: 23600000 instructions simulated : ctaid=(0,7,0) tid=(6,1,0)
GPGPU-Sim PTX: 23700000 instructions simulated : ctaid=(0,12,0) tid=(31,1,0)
GPGPU-Sim PTX: 23800000 instructions simulated : ctaid=(0,16,0) tid=(9,0,0)
GPGPU-Sim uArch: cycles simulated: 44500  inst.: 21308701 (ipc=478.8) sim_rate=318040 (inst/sec) elapsed = 0:0:01:07 / Tue Apr 16 16:50:30 2019
GPGPU-Sim PTX: 23900000 instructions simulated : ctaid=(1,8,0) tid=(17,1,0)
GPGPU-Sim PTX: 24000000 instructions simulated : ctaid=(1,21,0) tid=(0,2,0)
GPGPU-Sim PTX: 24100000 instructions simulated : ctaid=(1,23,0) tid=(14,3,0)
GPGPU-Sim PTX: 24200000 instructions simulated : ctaid=(0,4,0) tid=(2,0,0)
GPGPU-Sim uArch: cycles simulated: 45000  inst.: 21603228 (ipc=480.1) sim_rate=317694 (inst/sec) elapsed = 0:0:01:08 / Tue Apr 16 16:50:31 2019
GPGPU-Sim PTX: 24300000 instructions simulated : ctaid=(1,3,0) tid=(28,3,0)
GPGPU-Sim PTX: 24400000 instructions simulated : ctaid=(1,0,0) tid=(8,0,0)
GPGPU-Sim PTX: 24500000 instructions simulated : ctaid=(2,5,0) tid=(21,2,0)
GPGPU-Sim uArch: cycles simulated: 45500  inst.: 21844967 (ipc=480.1) sim_rate=316593 (inst/sec) elapsed = 0:0:01:09 / Tue Apr 16 16:50:32 2019
GPGPU-Sim PTX: 24600000 instructions simulated : ctaid=(1,4,0) tid=(19,0,0)
GPGPU-Sim PTX: 24700000 instructions simulated : ctaid=(1,15,0) tid=(15,2,0)
GPGPU-Sim uArch: cycles simulated: 46000  inst.: 22094177 (ipc=480.3) sim_rate=315631 (inst/sec) elapsed = 0:0:01:10 / Tue Apr 16 16:50:33 2019
GPGPU-Sim PTX: 24800000 instructions simulated : ctaid=(2,12,0) tid=(8,2,0)
GPGPU-Sim PTX: 24900000 instructions simulated : ctaid=(0,21,0) tid=(20,1,0)
GPGPU-Sim PTX: 25000000 instructions simulated : ctaid=(0,8,0) tid=(17,2,0)
GPGPU-Sim PTX: 25100000 instructions simulated : ctaid=(0,23,0) tid=(4,0,0)
GPGPU-Sim PTX: 25200000 instructions simulated : ctaid=(2,11,0) tid=(14,1,0)
GPGPU-Sim PTX: 25300000 instructions simulated : ctaid=(0,3,0) tid=(6,1,0)
GPGPU-Sim uArch: cycles simulated: 47000  inst.: 22629478 (ipc=481.5) sim_rate=318725 (inst/sec) elapsed = 0:0:01:11 / Tue Apr 16 16:50:34 2019
GPGPU-Sim PTX: 25400000 instructions simulated : ctaid=(2,19,0) tid=(25,1,0)
GPGPU-Sim PTX: 25500000 instructions simulated : ctaid=(2,11,0) tid=(5,1,0)
GPGPU-Sim PTX: 25600000 instructions simulated : ctaid=(0,0,0) tid=(18,3,0)
GPGPU-Sim uArch: cycles simulated: 47500  inst.: 22880114 (ipc=481.7) sim_rate=317779 (inst/sec) elapsed = 0:0:01:12 / Tue Apr 16 16:50:35 2019
GPGPU-Sim PTX: 25700000 instructions simulated : ctaid=(2,11,0) tid=(29,0,0)
GPGPU-Sim PTX: 25800000 instructions simulated : ctaid=(1,17,0) tid=(27,0,0)
GPGPU-Sim PTX: 25900000 instructions simulated : ctaid=(2,14,0) tid=(29,1,0)
GPGPU-Sim uArch: cycles simulated: 48000  inst.: 23161823 (ipc=482.5) sim_rate=317285 (inst/sec) elapsed = 0:0:01:13 / Tue Apr 16 16:50:36 2019
GPGPU-Sim PTX: 26000000 instructions simulated : ctaid=(2,23,0) tid=(6,1,0)
GPGPU-Sim PTX: 26100000 instructions simulated : ctaid=(2,23,0) tid=(23,2,0)
GPGPU-Sim PTX: 26200000 instructions simulated : ctaid=(1,19,0) tid=(8,3,0)
GPGPU-Sim PTX: 26300000 instructions simulated : ctaid=(3,18,0) tid=(3,2,0)
GPGPU-Sim PTX: 26400000 instructions simulated : ctaid=(3,12,0) tid=(5,3,0)
GPGPU-Sim PTX: 26500000 instructions simulated : ctaid=(1,3,0) tid=(8,3,0)
GPGPU-Sim uArch: cycles simulated: 49000  inst.: 23656285 (ipc=482.8) sim_rate=319679 (inst/sec) elapsed = 0:0:01:14 / Tue Apr 16 16:50:37 2019
GPGPU-Sim PTX: 26600000 instructions simulated : ctaid=(1,7,0) tid=(7,2,0)
GPGPU-Sim PTX: 26700000 instructions simulated : ctaid=(3,22,0) tid=(1,2,0)
GPGPU-Sim PTX: 26800000 instructions simulated : ctaid=(1,18,0) tid=(25,0,0)
GPGPU-Sim uArch: cycles simulated: 49500  inst.: 23923258 (ipc=483.3) sim_rate=318976 (inst/sec) elapsed = 0:0:01:15 / Tue Apr 16 16:50:38 2019
GPGPU-Sim PTX: 26900000 instructions simulated : ctaid=(1,6,0) tid=(14,0,0)
GPGPU-Sim PTX: 27000000 instructions simulated : ctaid=(0,19,0) tid=(20,1,0)
GPGPU-Sim PTX: 27100000 instructions simulated : ctaid=(0,20,0) tid=(28,1,0)
GPGPU-Sim uArch: cycles simulated: 50000  inst.: 24189861 (ipc=483.8) sim_rate=318287 (inst/sec) elapsed = 0:0:01:16 / Tue Apr 16 16:50:39 2019
GPGPU-Sim PTX: 27200000 instructions simulated : ctaid=(3,22,0) tid=(13,1,0)
GPGPU-Sim PTX: 27300000 instructions simulated : ctaid=(2,18,0) tid=(10,0,0)
GPGPU-Sim PTX: 27400000 instructions simulated : ctaid=(2,21,0) tid=(4,2,0)
GPGPU-Sim uArch: cycles simulated: 50500  inst.: 24426904 (ipc=483.7) sim_rate=317232 (inst/sec) elapsed = 0:0:01:17 / Tue Apr 16 16:50:40 2019
GPGPU-Sim PTX: 27500000 instructions simulated : ctaid=(3,5,0) tid=(20,0,0)
GPGPU-Sim PTX: 27600000 instructions simulated : ctaid=(2,6,0) tid=(8,1,0)
GPGPU-Sim PTX: 27700000 instructions simulated : ctaid=(2,22,0) tid=(16,1,0)
GPGPU-Sim uArch: cycles simulated: 51000  inst.: 24704187 (ipc=484.4) sim_rate=316720 (inst/sec) elapsed = 0:0:01:18 / Tue Apr 16 16:50:41 2019
GPGPU-Sim PTX: 27800000 instructions simulated : ctaid=(2,10,0) tid=(25,1,0)
GPGPU-Sim PTX: 27900000 instructions simulated : ctaid=(2,3,0) tid=(3,0,0)
GPGPU-Sim PTX: 28000000 instructions simulated : ctaid=(0,12,0) tid=(10,1,0)
GPGPU-Sim PTX: 28100000 instructions simulated : ctaid=(2,16,0) tid=(13,0,0)
GPGPU-Sim PTX: 28200000 instructions simulated : ctaid=(2,10,0) tid=(29,3,0)
GPGPU-Sim uArch: cycles simulated: 52000  inst.: 25207567 (ipc=484.8) sim_rate=319083 (inst/sec) elapsed = 0:0:01:19 / Tue Apr 16 16:50:42 2019
GPGPU-Sim PTX: 28300000 instructions simulated : ctaid=(0,12,0) tid=(17,2,0)
GPGPU-Sim PTX: 28400000 instructions simulated : ctaid=(0,6,0) tid=(2,0,0)
GPGPU-Sim PTX: 28500000 instructions simulated : ctaid=(0,11,0) tid=(24,0,0)
GPGPU-Sim uArch: cycles simulated: 52500  inst.: 25477486 (ipc=485.3) sim_rate=318468 (inst/sec) elapsed = 0:0:01:20 / Tue Apr 16 16:50:43 2019
GPGPU-Sim PTX: 28600000 instructions simulated : ctaid=(1,10,0) tid=(20,3,0)
GPGPU-Sim PTX: 28700000 instructions simulated : ctaid=(0,10,0) tid=(30,3,0)
GPGPU-Sim PTX: 28800000 instructions simulated : ctaid=(2,20,0) tid=(16,3,0)
GPGPU-Sim uArch: cycles simulated: 53000  inst.: 25729160 (ipc=485.5) sim_rate=317643 (inst/sec) elapsed = 0:0:01:21 / Tue Apr 16 16:50:44 2019
GPGPU-Sim PTX: 28900000 instructions simulated : ctaid=(1,3,0) tid=(11,0,0)
GPGPU-Sim PTX: 29000000 instructions simulated : ctaid=(1,13,0) tid=(29,1,0)
GPGPU-Sim PTX: 29100000 instructions simulated : ctaid=(0,3,0) tid=(27,3,0)
GPGPU-Sim PTX: 29200000 instructions simulated : ctaid=(2,16,0) tid=(11,3,0)
GPGPU-Sim PTX: 29300000 instructions simulated : ctaid=(2,16,0) tid=(11,1,0)
GPGPU-Sim PTX: 29400000 instructions simulated : ctaid=(1,10,0) tid=(25,1,0)
GPGPU-Sim uArch: cycles simulated: 54000  inst.: 26270446 (ipc=486.5) sim_rate=320371 (inst/sec) elapsed = 0:0:01:22 / Tue Apr 16 16:50:45 2019
GPGPU-Sim PTX: 29500000 instructions simulated : ctaid=(0,2,0) tid=(23,1,0)
GPGPU-Sim PTX: 29600000 instructions simulated : ctaid=(2,5,0) tid=(30,1,0)
GPGPU-Sim PTX: 29700000 instructions simulated : ctaid=(2,20,0) tid=(31,0,0)
GPGPU-Sim uArch: cycles simulated: 54500  inst.: 26529937 (ipc=486.8) sim_rate=319637 (inst/sec) elapsed = 0:0:01:23 / Tue Apr 16 16:50:46 2019
GPGPU-Sim PTX: 29800000 instructions simulated : ctaid=(0,13,0) tid=(29,0,0)
GPGPU-Sim PTX: 29900000 instructions simulated : ctaid=(1,9,0) tid=(6,3,0)
GPGPU-Sim PTX: 30000000 instructions simulated : ctaid=(3,23,0) tid=(0,2,0)
GPGPU-Sim uArch: cycles simulated: 55000  inst.: 26805628 (ipc=487.4) sim_rate=319114 (inst/sec) elapsed = 0:0:01:24 / Tue Apr 16 16:50:47 2019
GPGPU-Sim PTX: 30100000 instructions simulated : ctaid=(1,16,0) tid=(26,3,0)
GPGPU-Sim PTX: 30200000 instructions simulated : ctaid=(1,21,0) tid=(7,0,0)
GPGPU-Sim PTX: 30300000 instructions simulated : ctaid=(1,8,0) tid=(6,2,0)
GPGPU-Sim uArch: cycles simulated: 55500  inst.: 27074767 (ipc=487.8) sim_rate=318526 (inst/sec) elapsed = 0:0:01:25 / Tue Apr 16 16:50:48 2019
GPGPU-Sim PTX: 30400000 instructions simulated : ctaid=(3,21,0) tid=(20,3,0)
GPGPU-Sim PTX: 30500000 instructions simulated : ctaid=(1,21,0) tid=(24,2,0)
GPGPU-Sim PTX: 30600000 instructions simulated : ctaid=(0,22,0) tid=(29,2,0)
GPGPU-Sim PTX: 30700000 instructions simulated : ctaid=(0,12,0) tid=(5,1,0)
GPGPU-Sim PTX: 30800000 instructions simulated : ctaid=(1,10,0) tid=(12,0,0)
GPGPU-Sim PTX: 30900000 instructions simulated : ctaid=(3,24,0) tid=(11,3,0)
GPGPU-Sim uArch: cycles simulated: 56500  inst.: 27602750 (ipc=488.5) sim_rate=320962 (inst/sec) elapsed = 0:0:01:26 / Tue Apr 16 16:50:49 2019
GPGPU-Sim PTX: 31000000 instructions simulated : ctaid=(1,16,0) tid=(29,1,0)
GPGPU-Sim PTX: 31100000 instructions simulated : ctaid=(1,23,0) tid=(18,3,0)
GPGPU-Sim PTX: 31200000 instructions simulated : ctaid=(0,11,0) tid=(2,3,0)
GPGPU-Sim uArch: cycles simulated: 57000  inst.: 27868067 (ipc=488.9) sim_rate=320322 (inst/sec) elapsed = 0:0:01:27 / Tue Apr 16 16:50:50 2019
GPGPU-Sim PTX: 31300000 instructions simulated : ctaid=(2,22,0) tid=(7,1,0)
GPGPU-Sim PTX: 31400000 instructions simulated : ctaid=(1,21,0) tid=(26,1,0)
GPGPU-Sim PTX: 31500000 instructions simulated : ctaid=(2,12,0) tid=(24,3,0)
GPGPU-Sim uArch: cycles simulated: 57500  inst.: 28117067 (ipc=489.0) sim_rate=319512 (inst/sec) elapsed = 0:0:01:28 / Tue Apr 16 16:50:51 2019
GPGPU-Sim PTX: 31600000 instructions simulated : ctaid=(2,13,0) tid=(9,0,0)
GPGPU-Sim PTX: 31700000 instructions simulated : ctaid=(2,24,0) tid=(7,3,0)
GPGPU-Sim PTX: 31800000 instructions simulated : ctaid=(2,4,0) tid=(8,1,0)
GPGPU-Sim uArch: cycles simulated: 58000  inst.: 28392863 (ipc=489.5) sim_rate=319020 (inst/sec) elapsed = 0:0:01:29 / Tue Apr 16 16:50:52 2019
GPGPU-Sim PTX: 31900000 instructions simulated : ctaid=(1,11,0) tid=(11,3,0)
GPGPU-Sim PTX: 32000000 instructions simulated : ctaid=(2,2,0) tid=(11,2,0)
GPGPU-Sim PTX: 32100000 instructions simulated : ctaid=(2,23,0) tid=(19,0,0)
GPGPU-Sim PTX: 32200000 instructions simulated : ctaid=(3,19,0) tid=(3,0,0)
GPGPU-Sim PTX: 32300000 instructions simulated : ctaid=(0,6,0) tid=(3,3,0)
GPGPU-Sim PTX: 32400000 instructions simulated : ctaid=(1,7,0) tid=(20,2,0)
GPGPU-Sim uArch: cycles simulated: 59000  inst.: 28914917 (ipc=490.1) sim_rate=321276 (inst/sec) elapsed = 0:0:01:30 / Tue Apr 16 16:50:53 2019
GPGPU-Sim PTX: 32500000 instructions simulated : ctaid=(1,13,0) tid=(27,2,0)
GPGPU-Sim PTX: 32600000 instructions simulated : ctaid=(0,19,0) tid=(20,1,0)
GPGPU-Sim PTX: 32700000 instructions simulated : ctaid=(2,14,0) tid=(19,1,0)
GPGPU-Sim uArch: cycles simulated: 59500  inst.: 29184179 (ipc=490.5) sim_rate=320705 (inst/sec) elapsed = 0:0:01:31 / Tue Apr 16 16:50:54 2019
GPGPU-Sim PTX: 32800000 instructions simulated : ctaid=(3,8,0) tid=(5,3,0)
GPGPU-Sim PTX: 32900000 instructions simulated : ctaid=(1,8,0) tid=(6,2,0)
GPGPU-Sim PTX: 33000000 instructions simulated : ctaid=(2,17,0) tid=(8,2,0)
GPGPU-Sim uArch: cycles simulated: 60000  inst.: 29450076 (ipc=490.8) sim_rate=320109 (inst/sec) elapsed = 0:0:01:32 / Tue Apr 16 16:50:55 2019
GPGPU-Sim PTX: 33100000 instructions simulated : ctaid=(0,1,0) tid=(20,1,0)
GPGPU-Sim PTX: 33200000 instructions simulated : ctaid=(1,20,0) tid=(29,1,0)
GPGPU-Sim PTX: 33300000 instructions simulated : ctaid=(3,11,0) tid=(18,3,0)
GPGPU-Sim uArch: cycles simulated: 60500  inst.: 29702321 (ipc=490.9) sim_rate=319379 (inst/sec) elapsed = 0:0:01:33 / Tue Apr 16 16:50:56 2019
GPGPU-Sim PTX: 33400000 instructions simulated : ctaid=(0,4,0) tid=(2,2,0)
GPGPU-Sim PTX: 33500000 instructions simulated : ctaid=(2,5,0) tid=(2,0,0)
GPGPU-Sim PTX: 33600000 instructions simulated : ctaid=(0,18,0) tid=(1,2,0)
GPGPU-Sim uArch: cycles simulated: 61000  inst.: 29969973 (ipc=491.3) sim_rate=318829 (inst/sec) elapsed = 0:0:01:34 / Tue Apr 16 16:50:57 2019
GPGPU-Sim PTX: 33700000 instructions simulated : ctaid=(0,23,0) tid=(29,2,0)
GPGPU-Sim PTX: 33800000 instructions simulated : ctaid=(2,7,0) tid=(0,1,0)
GPGPU-Sim PTX: 33900000 instructions simulated : ctaid=(1,24,0) tid=(26,3,0)
GPGPU-Sim PTX: 34000000 instructions simulated : ctaid=(3,10,0) tid=(7,3,0)
GPGPU-Sim PTX: 34100000 instructions simulated : ctaid=(0,1,0) tid=(17,2,0)
GPGPU-Sim PTX: 34200000 instructions simulated : ctaid=(2,2,0) tid=(12,3,0)
GPGPU-Sim uArch: cycles simulated: 62000  inst.: 30476131 (ipc=491.6) sim_rate=320801 (inst/sec) elapsed = 0:0:01:35 / Tue Apr 16 16:50:58 2019
GPGPU-Sim PTX: 34300000 instructions simulated : ctaid=(2,1,0) tid=(16,1,0)
GPGPU-Sim PTX: 34400000 instructions simulated : ctaid=(3,8,0) tid=(2,1,0)
GPGPU-Sim PTX: 34500000 instructions simulated : ctaid=(1,4,0) tid=(15,1,0)
GPGPU-Sim uArch: cycles simulated: 62500  inst.: 30757978 (ipc=492.1) sim_rate=320395 (inst/sec) elapsed = 0:0:01:36 / Tue Apr 16 16:50:59 2019
GPGPU-Sim PTX: 34600000 instructions simulated : ctaid=(2,18,0) tid=(8,0,0)
GPGPU-Sim PTX: 34700000 instructions simulated : ctaid=(1,22,0) tid=(5,3,0)
GPGPU-Sim PTX: 34800000 instructions simulated : ctaid=(2,12,0) tid=(30,2,0)
GPGPU-Sim uArch: cycles simulated: 63000  inst.: 31017738 (ipc=492.3) sim_rate=319770 (inst/sec) elapsed = 0:0:01:37 / Tue Apr 16 16:51:00 2019
GPGPU-Sim PTX: 34900000 instructions simulated : ctaid=(0,9,0) tid=(11,1,0)
GPGPU-Sim PTX: 35000000 instructions simulated : ctaid=(2,7,0) tid=(0,0,0)
GPGPU-Sim PTX: 35100000 instructions simulated : ctaid=(0,3,0) tid=(29,1,0)
GPGPU-Sim uArch: cycles simulated: 63500  inst.: 31265628 (ipc=492.4) sim_rate=319037 (inst/sec) elapsed = 0:0:01:38 / Tue Apr 16 16:51:01 2019
GPGPU-Sim PTX: 35200000 instructions simulated : ctaid=(1,8,0) tid=(22,3,0)
GPGPU-Sim PTX: 35300000 instructions simulated : ctaid=(2,19,0) tid=(18,0,0)
GPGPU-Sim PTX: 35400000 instructions simulated : ctaid=(3,1,0) tid=(9,0,0)
GPGPU-Sim PTX: 35500000 instructions simulated : ctaid=(1,12,0) tid=(21,1,0)
GPGPU-Sim PTX: 35600000 instructions simulated : ctaid=(2,9,0) tid=(10,2,0)
GPGPU-Sim uArch: cycles simulated: 64500  inst.: 31786485 (ipc=492.8) sim_rate=321075 (inst/sec) elapsed = 0:0:01:39 / Tue Apr 16 16:51:02 2019
GPGPU-Sim PTX: 35700000 instructions simulated : ctaid=(1,23,0) tid=(7,0,0)
GPGPU-Sim PTX: 35800000 instructions simulated : ctaid=(2,17,0) tid=(11,2,0)
GPGPU-Sim PTX: 35900000 instructions simulated : ctaid=(0,8,0) tid=(9,0,0)
GPGPU-Sim uArch: cycles simulated: 65000  inst.: 32060261 (ipc=493.2) sim_rate=320602 (inst/sec) elapsed = 0:0:01:40 / Tue Apr 16 16:51:03 2019
GPGPU-Sim PTX: 36000000 instructions simulated : ctaid=(2,8,0) tid=(23,2,0)
GPGPU-Sim PTX: 36100000 instructions simulated : ctaid=(1,10,0) tid=(11,2,0)
GPGPU-Sim PTX: 36200000 instructions simulated : ctaid=(2,12,0) tid=(19,2,0)
GPGPU-Sim uArch: cycles simulated: 65500  inst.: 32326452 (ipc=493.5) sim_rate=320063 (inst/sec) elapsed = 0:0:01:41 / Tue Apr 16 16:51:04 2019
GPGPU-Sim PTX: 36300000 instructions simulated : ctaid=(0,9,0) tid=(1,0,0)
GPGPU-Sim PTX: 36400000 instructions simulated : ctaid=(0,3,0) tid=(22,2,0)
GPGPU-Sim PTX: 36500000 instructions simulated : ctaid=(0,7,0) tid=(4,0,0)
GPGPU-Sim uArch: cycles simulated: 66000  inst.: 32573923 (ipc=493.5) sim_rate=319352 (inst/sec) elapsed = 0:0:01:42 / Tue Apr 16 16:51:05 2019
GPGPU-Sim PTX: 36600000 instructions simulated : ctaid=(1,22,0) tid=(24,2,0)
GPGPU-Sim PTX: 36700000 instructions simulated : ctaid=(1,13,0) tid=(24,0,0)
GPGPU-Sim PTX: 36800000 instructions simulated : ctaid=(0,16,0) tid=(16,1,0)
GPGPU-Sim PTX: 36900000 instructions simulated : ctaid=(1,0,0) tid=(30,0,0)
GPGPU-Sim PTX: 37000000 instructions simulated : ctaid=(1,20,0) tid=(10,2,0)
GPGPU-Sim PTX: 37100000 instructions simulated : ctaid=(1,1,0) tid=(11,2,0)
GPGPU-Sim uArch: cycles simulated: 67000  inst.: 33112479 (ipc=494.2) sim_rate=321480 (inst/sec) elapsed = 0:0:01:43 / Tue Apr 16 16:51:06 2019
GPGPU-Sim PTX: 37200000 instructions simulated : ctaid=(1,9,0) tid=(25,1,0)
GPGPU-Sim PTX: 37300000 instructions simulated : ctaid=(2,8,0) tid=(30,3,0)
GPGPU-Sim PTX: 37400000 instructions simulated : ctaid=(1,14,0) tid=(10,2,0)
GPGPU-Sim uArch: cycles simulated: 67500  inst.: 33356009 (ipc=494.2) sim_rate=320730 (inst/sec) elapsed = 0:0:01:44 / Tue Apr 16 16:51:07 2019
GPGPU-Sim PTX: 37500000 instructions simulated : ctaid=(3,4,0) tid=(17,3,0)
GPGPU-Sim PTX: 37600000 instructions simulated : ctaid=(2,10,0) tid=(19,1,0)
GPGPU-Sim PTX: 37700000 instructions simulated : ctaid=(0,7,0) tid=(16,3,0)
GPGPU-Sim uArch: cycles simulated: 68000  inst.: 33638534 (ipc=494.7) sim_rate=320366 (inst/sec) elapsed = 0:0:01:45 / Tue Apr 16 16:51:08 2019
GPGPU-Sim PTX: 37800000 instructions simulated : ctaid=(3,5,0) tid=(2,3,0)
GPGPU-Sim PTX: 37900000 instructions simulated : ctaid=(2,20,0) tid=(4,2,0)
GPGPU-Sim PTX: 38000000 instructions simulated : ctaid=(0,5,0) tid=(6,3,0)
GPGPU-Sim uArch: cycles simulated: 68500  inst.: 33885462 (ipc=494.7) sim_rate=319674 (inst/sec) elapsed = 0:0:01:46 / Tue Apr 16 16:51:09 2019
GPGPU-Sim PTX: 38100000 instructions simulated : ctaid=(2,14,0) tid=(8,1,0)
GPGPU-Sim PTX: 38200000 instructions simulated : ctaid=(2,1,0) tid=(4,1,0)
GPGPU-Sim PTX: 38300000 instructions simulated : ctaid=(2,14,0) tid=(10,2,0)
GPGPU-Sim PTX: 38400000 instructions simulated : ctaid=(2,4,0) tid=(25,0,0)
GPGPU-Sim PTX: 38500000 instructions simulated : ctaid=(2,17,0) tid=(15,2,0)
GPGPU-Sim PTX: 38600000 instructions simulated : ctaid=(0,10,0) tid=(5,3,0)
GPGPU-Sim uArch: cycles simulated: 69500  inst.: 34422682 (ipc=495.3) sim_rate=321707 (inst/sec) elapsed = 0:0:01:47 / Tue Apr 16 16:51:10 2019
GPGPU-Sim PTX: 38700000 instructions simulated : ctaid=(1,12,0) tid=(26,0,0)
GPGPU-Sim PTX: 38800000 instructions simulated : ctaid=(0,4,0) tid=(3,0,0)
GPGPU-Sim PTX: 38900000 instructions simulated : ctaid=(2,0,0) tid=(19,1,0)
GPGPU-Sim uArch: cycles simulated: 70000  inst.: 34674632 (ipc=495.4) sim_rate=321061 (inst/sec) elapsed = 0:0:01:48 / Tue Apr 16 16:51:11 2019
GPGPU-Sim PTX: 39000000 instructions simulated : ctaid=(1,14,0) tid=(6,3,0)
GPGPU-Sim PTX: 39100000 instructions simulated : ctaid=(0,0,0) tid=(16,3,0)
GPGPU-Sim PTX: 39200000 instructions simulated : ctaid=(0,24,0) tid=(9,0,0)
GPGPU-Sim uArch: cycles simulated: 70500  inst.: 34921017 (ipc=495.3) sim_rate=320376 (inst/sec) elapsed = 0:0:01:49 / Tue Apr 16 16:51:12 2019
GPGPU-Sim PTX: 39300000 instructions simulated : ctaid=(2,11,0) tid=(1,1,0)
GPGPU-Sim PTX: 39400000 instructions simulated : ctaid=(2,23,0) tid=(24,3,0)
GPGPU-Sim PTX: 39500000 instructions simulated : ctaid=(1,3,0) tid=(25,0,0)
GPGPU-Sim uArch: cycles simulated: 71000  inst.: 35196114 (ipc=495.7) sim_rate=319964 (inst/sec) elapsed = 0:0:01:50 / Tue Apr 16 16:51:13 2019
GPGPU-Sim PTX: 39600000 instructions simulated : ctaid=(2,11,0) tid=(23,3,0)
GPGPU-Sim PTX: 39700000 instructions simulated : ctaid=(2,20,0) tid=(18,0,0)
GPGPU-Sim PTX: 39800000 instructions simulated : ctaid=(0,4,0) tid=(9,1,0)
GPGPU-Sim PTX: 39900000 instructions simulated : ctaid=(1,4,0) tid=(12,1,0)
GPGPU-Sim PTX: 40000000 instructions simulated : ctaid=(0,2,0) tid=(31,3,0)
GPGPU-Sim PTX: 40100000 instructions simulated : ctaid=(1,11,0) tid=(3,0,0)
GPGPU-Sim uArch: cycles simulated: 72000  inst.: 35721444 (ipc=496.1) sim_rate=321814 (inst/sec) elapsed = 0:0:01:51 / Tue Apr 16 16:51:14 2019
GPGPU-Sim PTX: 40200000 instructions simulated : ctaid=(2,18,0) tid=(25,1,0)
GPGPU-Sim PTX: 40300000 instructions simulated : ctaid=(2,18,0) tid=(10,1,0)
GPGPU-Sim uArch: cycles simulated: 72500  inst.: 35975285 (ipc=496.2) sim_rate=321207 (inst/sec) elapsed = 0:0:01:52 / Tue Apr 16 16:51:15 2019
GPGPU-Sim PTX: 40400000 instructions simulated : ctaid=(0,3,0) tid=(26,1,0)
GPGPU-Sim PTX: 40500000 instructions simulated : ctaid=(2,4,0) tid=(6,3,0)
GPGPU-Sim PTX: 40600000 instructions simulated : ctaid=(3,20,0) tid=(15,1,0)
GPGPU-Sim PTX: 40700000 instructions simulated : ctaid=(0,21,0) tid=(13,2,0)
GPGPU-Sim uArch: cycles simulated: 73000  inst.: 36252701 (ipc=496.6) sim_rate=320820 (inst/sec) elapsed = 0:0:01:53 / Tue Apr 16 16:51:16 2019
GPGPU-Sim PTX: 40800000 instructions simulated : ctaid=(2,23,0) tid=(6,3,0)
GPGPU-Sim PTX: 40900000 instructions simulated : ctaid=(2,2,0) tid=(20,3,0)
GPGPU-Sim uArch: cycles simulated: 73500  inst.: 36497728 (ipc=496.6) sim_rate=320155 (inst/sec) elapsed = 0:0:01:54 / Tue Apr 16 16:51:17 2019
GPGPU-Sim PTX: 41000000 instructions simulated : ctaid=(2,17,0) tid=(27,2,0)
GPGPU-Sim PTX: 41100000 instructions simulated : ctaid=(2,6,0) tid=(27,1,0)
GPGPU-Sim PTX: 41200000 instructions simulated : ctaid=(2,14,0) tid=(10,2,0)
GPGPU-Sim PTX: 41300000 instructions simulated : ctaid=(1,3,0) tid=(8,2,0)
GPGPU-Sim PTX: 41400000 instructions simulated : ctaid=(2,15,0) tid=(4,2,0)
GPGPU-Sim PTX: 41500000 instructions simulated : ctaid=(1,20,0) tid=(12,3,0)
GPGPU-Sim uArch: cycles simulated: 74500  inst.: 37044482 (ipc=497.2) sim_rate=322125 (inst/sec) elapsed = 0:0:01:55 / Tue Apr 16 16:51:18 2019
GPGPU-Sim PTX: 41600000 instructions simulated : ctaid=(0,17,0) tid=(3,0,0)
GPGPU-Sim PTX: 41700000 instructions simulated : ctaid=(2,3,0) tid=(8,1,0)
GPGPU-Sim PTX: 41800000 instructions simulated : ctaid=(2,3,0) tid=(9,1,0)
GPGPU-Sim uArch: cycles simulated: 75000  inst.: 37303278 (ipc=497.4) sim_rate=321579 (inst/sec) elapsed = 0:0:01:56 / Tue Apr 16 16:51:19 2019
GPGPU-Sim PTX: 41900000 instructions simulated : ctaid=(0,6,0) tid=(27,2,0)
GPGPU-Sim PTX: 42000000 instructions simulated : ctaid=(1,3,0) tid=(8,0,0)
GPGPU-Sim PTX: 42100000 instructions simulated : ctaid=(2,8,0) tid=(17,0,0)
GPGPU-Sim uArch: cycles simulated: 75500  inst.: 37559832 (ipc=497.5) sim_rate=321024 (inst/sec) elapsed = 0:0:01:57 / Tue Apr 16 16:51:20 2019
GPGPU-Sim PTX: 42200000 instructions simulated : ctaid=(1,2,0) tid=(6,3,0)
GPGPU-Sim PTX: 42300000 instructions simulated : ctaid=(2,16,0) tid=(7,0,0)
GPGPU-Sim PTX: 42400000 instructions simulated : ctaid=(0,10,0) tid=(9,3,0)
GPGPU-Sim PTX: 42500000 instructions simulated : ctaid=(2,22,0) tid=(9,0,0)
GPGPU-Sim PTX: 42600000 instructions simulated : ctaid=(2,16,0) tid=(22,0,0)
GPGPU-Sim PTX: 42700000 instructions simulated : ctaid=(1,8,0) tid=(23,0,0)
GPGPU-Sim uArch: cycles simulated: 76500  inst.: 38103252 (ipc=498.1) sim_rate=322908 (inst/sec) elapsed = 0:0:01:58 / Tue Apr 16 16:51:21 2019
GPGPU-Sim PTX: 42800000 instructions simulated : ctaid=(1,1,0) tid=(22,1,0)
GPGPU-Sim PTX: 42900000 instructions simulated : ctaid=(3,4,0) tid=(12,3,0)
GPGPU-Sim PTX: 43000000 instructions simulated : ctaid=(0,15,0) tid=(9,3,0)
GPGPU-Sim uArch: cycles simulated: 77000  inst.: 38336151 (ipc=497.9) sim_rate=322152 (inst/sec) elapsed = 0:0:01:59 / Tue Apr 16 16:51:22 2019
[...]
maxdqlatency = 0 
maxmflatency = 1315 
averagemflatency = 267 
max_icnt2mem_latency = 536 
max_icnt2sh_latency = 163327 
mrq_lat_table:49370 	3605 	3860 	9891 	23780 	22493 	11142 	2175 	176 	3 	0 	0 	0 	0 	0 	0 	0 	0 	0 	0 	0 	0 	0 	0 	0 	0 	0 	0 	0 	0 	0 	0 	
dq_lat_table:0 	0 	0 	0 	0 	0 	0 	0 	0 	0 	0 	0 	0 	0 	0 	0 	0 	0 	0 	0 	0 	0 	0 	0 	0 	0 	0 	0 	0 	0 	0 	0 	
mf_lat_table:0 	0 	0 	0 	0 	0 	0 	72837 	102472 	2152 	138 	0 	0 	0 	0 	0 	0 	0 	0 	0 	0 	0 	0 	0 	0 	0 	0 	0 	0 	0 	0 	0 	
icnt2mem_lat_table:0 	0 	0 	113372 	49989 	11380 	2205 	584 	278 	1 	0 	0 	0 	0 	0 	0 	0 	0 	0 	0 	0 	0 	0 	0 	
icnt2sh_lat_table:0 	0 	0 	19688 	65097 	25753 	811 	0 	0 	0 	0 	0 	1308 	3707 	7769 	15710 	31517 	6239 	0 	0 	0 	0 	0 	0 	
mf_lat_pw_table:0 	0 	0 	0 	0 	0 	0 	135 	187 	2 	0 	0 	0 	0 	0 	0 	0 	0 	0 	0 	0 	0 	0 	0 	0 	0 	0 	0 	0 	0 	0 	0 	
maximum concurrent accesses to same row:
dram[0]:        34        15        21        19        28        22        32        32        60        72        47        29        28        23        19        23 
dram[1]:        18        16        19        19        25        24        32        32        64        64        26        38        24        24        26        24 
dram[2]:        16        19        20        18        21        28        32        32        66        59        42        30        28        18        16        21 
dram[3]:        21        17        30        23        18        29        32        32        55        72        28        38        17        32        15        18 
dram[4]:        22        17        21        15        19        21        32        32        68        69        38        23        19        25        25        24 
dram[5]:        15        17        20        17        25        29        32        32        71        45        33        26        26        20        29        20 
maximum service time to same row:
dram[0]:     11599      9718     13485     13650     13541     13800     15396     15240     11083     11384     10307     10285     10075      9873     10479     10729 
dram[1]:     11031     12032     13664     13663     13549     13807     15250     15415     11076     11319     10168     10293     10219     10033     10503     10470 
dram[2]:     11328     12079     13450     13660     13561     13798     14575     15443     11157     12318     10177     10412     10041     10029     10644     10616 
dram[3]:     10401     12372     13472     13641     13575     13796     15247     15494     11204     11476     10292     10115     10078     10081     10637     10433 
dram[4]:      9766     12075     13687     13672     13565     13734     15325     15456     11097     11418     10102     10247      9834     10000     10657     10437 
dram[5]:      9638     12087     13541     13791     13165     12952     15283     15625     11173     11245     10125     10352      9828     10035     10654     10621 
average row accesses per activate:
dram[0]:  3.109785  2.961009  2.925843  3.009324  3.054245  3.143885  2.988814  3.020408  3.083146  3.237209  3.192857  3.219807  2.919101  2.963218  3.006961  2.885463 
dram[1]:  2.941573  2.972477  3.133820  3.063679  3.125000  3.072770  2.973094  2.961969  3.163218  3.248260  3.265854  3.031818  3.018605  2.941309  3.040094  3.046729 
dram[2]:  2.902655  2.950000  2.933790  3.063529  3.009281  3.027842  2.968680  3.020455  3.212617  3.212329  3.262136  3.015909  2.963218  2.854945  2.905406  3.087678 
dram[3]:  2.945701  3.088517  2.956621  2.947964  2.945578  3.072941  2.964286  3.104408  3.125285  3.250575  3.068965  3.104651  2.848889  2.782979  2.997674  2.842105 
dram[4]:  3.046729  3.009238  3.066986  2.844298  3.053738  3.063679  2.894273  3.138095  3.222482  3.221709  3.006696  3.029613  2.929864  2.897778  2.952055  3.120482 
dram[5]:  2.972603  3.141464  2.863135  2.931973  3.122010  3.114558  2.812367  2.966518  3.145786  3.250000  3.172986  3.119438  2.878652  2.894040  2.836601  3.047170 
average row locality = 126495/41778 = 3.027790
number of total memory accesses made:
dram[0]:         0         0         0         0         0         0         0         0         0         0         0         0         0         0         0         0 
dram[1]:         0         0         0         0         0         0         0         0         0         0         0         0         0         0         0         0 
dram[2]:         0         0         0         0         0         0         0         0         0         0         0         0         0         0         0         0 
dram[3]:         0         0         0         0         0         0         0         0         0         0         0         0         0         0         0         0 
dram[4]:         0         0         0         0         0         0         0         0         0         0         0         0         0         0         0         0 
dram[5]:         0         0         0         0         0         0         0         0         0         0         0         0         0         0         0         0 
total accesses: 0
min_bank_accesses = 0!
min_chip_accesses = 0!
number of total read accesses:
dram[0]:       650       644       649       647       654       656       675       680       676       679       661       660       649       643       649       642 
dram[1]:       649       645       649       648       656       655       674       678       679       679       657       663       646       647       643       646 
dram[2]:       645       647       642       650       652       659       673       682       675       678       657       662       645       645       643       646 
dram[3]:       642       646       646       646       657       659       676       682       675       681       655       665       642       646       643       646 
dram[4]:       644       652       641       648       652       658       675       677       676       680       662       660       646       646       642       647 
dram[5]:       646       647       647       646       654       658       675       678       674       680       657       662       643       644       643       647 
total reads: 63043
bank skew: 682/641 = 1.06
chip skew: 10514/10501 = 1.00
number of total write accesses:
dram[0]:       653       647       653       644       641       655       661       652       696       713       680       673       650       646       647       668 
dram[1]:       660       651       639       651       644       654       652       646       697       721       682       671       652       656       646       658 
dram[2]:       667       651       643       652       645       646       654       647       700       729       687       665       644       654       647       657 
dram[3]:       660       645       649       657       642       647       652       656       697       733       680       670       640       662       646       650 
dram[4]:       660       651       641       649       655       641       639       641       700       715       685       670       649       658       651       648 
dram[5]:       656       641       650       647       651       647       644       651       707       711       682       670       638       667       659       645 
total reads: 63452
bank skew: 733/638 = 1.15
chip skew: 10588/10553 = 1.00
average mf latency per bank:
dram[0]:        372       359       364       364       376       371       380       382       386       392       378       374       382       376       373       372
dram[1]:        368       362       383       360       379       370       388       380       394       383       373       372       364       368       369       376
dram[2]:        368       362       371       367       371       370       381       378       394       390       380       366       373       356       375       367
dram[3]:        367       374       373       362       370       377       384       387       394       396       377       383       367       378       365       375
dram[4]:        361       362       378       366       373       372       384       383       387       396       372       371       369       369       370       367
dram[5]:        364       368       369       371       373       372       384       384       396       394       388       363       384       362       368       375
maximum mf latency per bank:
dram[0]:        763       533       576       594       537       617       528       677      1054      1256       950      1145       659       681       599       668
dram[1]:        553       549       617       562       762       586       637       544      1104      1003       944       743       691       626       584       701
dram[2]:        664       532       583       532       626       531       541       535      1147      1124       974       632       855       501       674       674
dram[3]:        564       660       659       542       503       579       565       562      1231      1147       833       961       544       688       557       656
dram[4]:        558       534       604       549       652       534       546       564      1073      1172       684       698       551       555       783       620
dram[5]:        567       589       583       544       629       581       668       561      1043      1315       855       624       687       543       655       613

Number of Memory Banks Accessed per Memory Operation per Warp (from 0):
0	0	0	0	0	0	0	0	0	0	0	0	0	0	0	0	0	0	0	0	0	0	0	0	0	0	0	0	0	0	0	0	0	0	0	0	0	0	0	0	0	0	0	0	0	0	0	0	0	0	0	0	0	0	0	0	0	0	0	0	0	0	0	0	0	0	0	0	0	0	0	0	0	0	0	0	0	0	0	0	0	0	0	0	0	0	0	0	0	0	0	0	0	0	0	0	
Average # of Memory Banks Accessed per Memory Operation per Warp=-nan

position of mrq chosen
0	0	0	0	0	0	0	0	0	0	0	0	0	0	0	0	

average position of mrq chosen = -nan
Memory Partition 0: 
Cache L2_bank_000:
MSHR contents

Cache L2_bank_001:
MSHR contents

In Dram Latency Queue (total = 0): 
DRAM[0]: 16 bks, busW=4 BL=8 CL=12, tRRD=2 tCCD=6, tRCD=12 tRAS=28 tRP=12 tRC=40
n_cmd=215592 n_nop=164866 n_act=6932 n_pre=6916 n_req=21093 n_rd=21028 n_write=15850 bw_util=0.3421
n_activity=188359 dram_eff=0.3916
bk0: 1300a 185288i bk1: 1288a 184171i bk2: 1298a 183081i bk3: 1294a 184190i bk4: 1308a 183941i bk5: 1312a 183152i bk6: 1350a 183190i bk7: 1360a 182189i bk8: 1352a 182647i bk9: 1358a 182796i bk10: 1322a 182735i bk11: 1320a 182998i bk12: 1298a 184224i bk13: 1286a 183740i bk14: 1298a 182563i bk15: 1284a 182323i 
dram_util_bins: 0 0 0 0 0 0 0 0 0 0
dram_eff_bins: 0 0 0 0 0 0 0 0 0 0
mrqq: max=16 avg=3.09596
Memory Partition 1: 
Cache L2_bank_002:
MSHR contents

Cache L2_bank_003:
MSHR contents

In Dram Latency Queue (total = 0): 
DRAM[1]: 16 bks, busW=4 BL=8 CL=12, tRRD=2 tCCD=6, tRCD=12 tRAS=28 tRP=12 tRC=40
n_cmd=215592 n_nop=164932 n_act=6892 n_pre=6876 n_req=21094 n_rd=21028 n_write=15864 bw_util=0.3422
n_activity=187507 dram_eff=0.3935
bk0: 1298a 183439i bk1: 1290a 184188i bk2: 1298a 183750i bk3: 1296a 183869i bk4: 1312a 183186i bk5: 1310a 183746i bk6: 1348a 183485i bk7: 1356a 181997i bk8: 1358a 183151i bk9: 1358a 181768i bk10: 1314a 182662i bk11: 1326a 182344i bk12: 1292a 183956i bk13: 1294a 182293i bk14: 1286a 183132i bk15: 1292a 183645i 
dram_util_bins: 0 0 0 0 0 0 0 0 0 0
dram_eff_bins: 0 0 0 0 0 0 0 0 0 0
mrqq: max=16 avg=3.11014
Memory Partition 2: 
Cache L2_bank_004:
MSHR contents

Cache L2_bank_005:
MSHR contents

In Dram Latency Queue (total = 0): 
DRAM[2]: 16 bks, busW=4 BL=8 CL=12, tRRD=2 tCCD=6, tRCD=12 tRAS=28 tRP=12 tRC=40
n_cmd=215592 n_nop=164750 n_act=6978 n_pre=6962 n_req=21089 n_rd=21002 n_write=15900 bw_util=0.3423
n_activity=187659 dram_eff=0.3933
bk0: 1290a 183612i bk1: 1294a 183099i bk2: 1284a 183144i bk3: 1300a 183088i bk4: 1304a 183259i bk5: 1318a 182984i bk6: 1346a 182777i bk7: 1364a 182504i bk8: 1350a 182755i bk9: 1356a 182255i bk10: 1314a 182824i bk11: 1324a 182906i bk12: 1290a 183335i bk13: 1290a 182723i bk14: 1286a 182845i bk15: 1292a 183630i 
dram_util_bins: 0 0 0 0 0 0 0 0 0 0
dram_eff_bins: 0 0 0 0 0 0 0 0 0 0
mrqq: max=16 avg=3.04314
Memory Partition 3: 
Cache L2_bank_006:
MSHR contents

Cache L2_bank_007:
MSHR contents
MSHR: tag=0x807a0580, atomic=0 1 entries : 0x7fcda4a88360 :  mf: uid=2249253, sid03:w24, part=3, addr=0x807a0580, load , size=128, unknown  status = IN_PARTITION_DRAM (163325), 

In Dram Latency Queue (total = 0): 
DRAM[3]: 16 bks, busW=4 BL=8 CL=12, tRRD=2 tCCD=6, tRCD=12 tRAS=28 tRP=12 tRC=40
n_cmd=215592 n_nop=164643 n_act=7030 n_pre=7014 n_req=21093 n_rd=21014 n_write=15891 bw_util=0.3424
n_activity=187326 dram_eff=0.394
bk0: 1284a 183637i bk1: 1292a 183676i bk2: 1292a 183170i bk3: 1292a 183067i bk4: 1314a 182463i bk5: 1318a 182931i bk6: 1352a 182718i bk7: 1364a 181636i bk8: 1350a 182851i bk9: 1362a 181891i bk10: 1310a 183331i bk11: 1330a 183467i bk12: 1284a 183226i bk13: 1292a 182094i bk14: 1286a 182964i bk15: 1292a 182602i 
dram_util_bins: 0 0 0 0 0 0 0 0 0 0
dram_eff_bins: 0 0 0 0 0 0 0 0 0 0
mrqq: max=16 avg=3.07326
Memory Partition 4: 
Cache L2_bank_008:
MSHR contents

Cache L2_bank_009:
MSHR contents

In Dram Latency Queue (total = 0): 
DRAM[4]: 16 bks, busW=4 BL=8 CL=12, tRRD=2 tCCD=6, tRCD=12 tRAS=28 tRP=12 tRC=40
n_cmd=215592 n_nop=164851 n_act=6953 n_pre=6937 n_req=21059 n_rd=21012 n_write=15839 bw_util=0.3419
n_activity=187440 dram_eff=0.3932
bk0: 1288a 184548i bk1: 1304a 183480i bk2: 1282a 183608i bk3: 1296a 182486i bk4: 1304a 183288i bk5: 1316a 183202i bk6: 1350a 182752i bk7: 1354a 182971i bk8: 1352a 183023i bk9: 1360a 182623i bk10: 1324a 182827i bk11: 1320a 183433i bk12: 1292a 183293i bk13: 1292a 182547i bk14: 1284a 183156i bk15: 1294a 182898i 
dram_util_bins: 0 0 0 0 0 0 0 0 0 0
dram_eff_bins: 0 0 0 0 0 0 0 0 0 0
mrqq: max=16 avg=3.01431
Memory Partition 5: 
Cache L2_bank_010:
MSHR contents

Cache L2_bank_011:
MSHR contents

In Dram Latency Queue (total = 0): 
DRAM[5]: 16 bks, busW=4 BL=8 CL=12, tRRD=2 tCCD=6, tRCD=12 tRAS=28 tRP=12 tRC=40
n_cmd=215592 n_nop=164768 n_act=6993 n_pre=6977 n_req=21067 n_rd=21002 n_write=15852 bw_util=0.3419
n_activity=187287 dram_eff=0.3936
bk0: 1292a 183925i bk1: 1294a 184015i bk2: 1294a 183360i bk3: 1292a 182801i bk4: 1308a 183739i bk5: 1316a 183881i bk6: 1350a 182102i bk7: 1356a 182698i bk8: 1348a 182442i bk9: 1360a 182046i bk10: 1314a 183302i bk11: 1324a 184050i bk12: 1286a 183940i bk13: 1288a 183163i bk14: 1286a 183074i bk15: 1294a 182574i 
dram_util_bins: 0 0 0 0 0 0 0 0 0 0
dram_eff_bins: 0 0 0 0 0 0 0 0 0 0
mrqq: max=16 avg=3.09499

========= L2 cache stats =========
L2_cache_bank[0]: Access = 14833, Miss = 5263, Miss_rate = 0.355, Pending_hits = 4129, Reservation_fails = 708
L2_cache_bank[1]: Access = 14822, Miss = 5251, Miss_rate = 0.354, Pending_hits = 4164, Reservation_fails = 372
L2_cache_bank[2]: Access = 14848, Miss = 5253, Miss_rate = 0.354, Pending_hits = 4130, Reservation_fails = 857
L2_cache_bank[3]: Access = 14784, Miss = 5261, Miss_rate = 0.356, Pending_hits = 4132, Reservation_fails = 207
L2_cache_bank[4]: Access = 14841, Miss = 5232, Miss_rate = 0.353, Pending_hits = 4084, Reservation_fails = 985
L2_cache_bank[5]: Access = 14800, Miss = 5269, Miss_rate = 0.356, Pending_hits = 4118, Reservation_fails = 320
L2_cache_bank[6]: Access = 14838, Miss = 5236, Miss_rate = 0.353, Pending_hits = 4035, Reservation_fails = 845
L2_cache_bank[7]: Access = 14784, Miss = 5271, Miss_rate = 0.357, Pending_hits = 4250, Reservation_fails = 497
L2_cache_bank[8]: Access = 14841, Miss = 5238, Miss_rate = 0.353, Pending_hits = 4017, Reservation_fails = 716
L2_cache_bank[9]: Access = 14798, Miss = 5268, Miss_rate = 0.356, Pending_hits = 4098, Reservation_fails = 594
L2_cache_bank[10]: Access = 14828, Miss = 5239, Miss_rate = 0.353, Pending_hits = 4045, Reservation_fails = 586
L2_cache_bank[11]: Access = 14792, Miss = 5262, Miss_rate = 0.356, Pending_hits = 4057, Reservation_fails = 859
L2_total_cache_accesses = 177809
L2_total_cache_misses = 63043
L2_total_cache_miss_rate = 0.3546
L2_total_cache_pending_hits = 49259
L2_total_cache_reservation_fails = 7546
L2_total_cache_breakdown:
	L2_cache_stats_breakdown[GLOBAL_ACC_R][HIT] = 52350
	L2_cache_stats_breakdown[GLOBAL_ACC_R][HIT_RESERVED] = 27373
	L2_cache_stats_breakdown[GLOBAL_ACC_R][MISS] = 31611
	L2_cache_stats_breakdown[GLOBAL_ACC_R][RESERVATION_FAIL] = 5857
	L2_cache_stats_breakdown[CONST_ACC_R][HIT] = 11
	L2_cache_stats_breakdown[CONST_ACC_R][HIT_RESERVED] = 3
	L2_cache_stats_breakdown[CONST_ACC_R][MISS] = 1
	L2_cache_stats_breakdown[CONST_ACC_R][RESERVATION_FAIL] = 108
	L2_cache_stats_breakdown[GLOBAL_ACC_W][HIT] = 12992
	L2_cache_stats_breakdown[GLOBAL_ACC_W][HIT_RESERVED] = 21841
	L2_cache_stats_breakdown[GLOBAL_ACC_W][MISS] = 31417
	L2_cache_stats_breakdown[GLOBAL_ACC_W][RESERVATION_FAIL] = 273
	L2_cache_stats_breakdown[INST_ACC_R][HIT] = 154
	L2_cache_stats_breakdown[INST_ACC_R][HIT_RESERVED] = 42
	L2_cache_stats_breakdown[INST_ACC_R][MISS] = 14
	L2_cache_stats_breakdown[INST_ACC_R][RESERVATION_FAIL] = 1308
L2_cache_data_port_util = 0.134
L2_cache_fill_port_util = 0.129

icnt_total_pkts_mem_to_simt=624015
icnt_total_pkts_simt_to_mem=337809
LD_mem_lat_dist  0 0 0 0 0 0 0 0 0 0 0 0 0 0 0 0 0 0 0 0 0 0 0 0 0 0 0
ST_mem_lat_dist  0 0 0 0 0 0 0 0 0 0 0 0 0 0 0 0 0 0 0 0 0 0 0 0 0 0 0
----------------------------Interconnect-DETAILS--------------------------------
Class 0:
Packet latency average = 17.5423
	minimum = 6
	maximum = 449
Network latency average = 13.986
	minimum = 6
	maximum = 438
Slowest packet = 5723
Flit latency average = 12.3727
	minimum = 6
	maximum = 438
Slowest flit = 16886
Fragmentation average = 0.00907716
	minimum = 0
	maximum = 404
Injected packet rate average = 0.0806416
	minimum = 0.0625796 (at node 13)
	maximum = 0.0909091 (at node 17)
Accepted packet rate average = 0.0806416
	minimum = 0.0625796 (at node 13)
	maximum = 0.0909091 (at node 17)
Injected flit rate average = 0.218108
	minimum = 0.116459 (at node 13)
	maximum = 0.319333 (at node 17)
Accepted flit rate average= 0.218108
	minimum = 0.172151 (at node 18)
	maximum = 0.279885 (at node 7)
Injected packet length average = 2.70465
Accepted packet length average = 2.70465
Total in-flight flits = 0 (0 measured)
====== Overall Traffic Statistics ======
====== Traffic class 0 ======
Packet latency average = 17.5423 (1 samples)
	minimum = 6 (1 samples)
	maximum = 449 (1 samples)
Network latency average = 13.986 (1 samples)
	minimum = 6 (1 samples)
	maximum = 438 (1 samples)
Flit latency average = 12.3727 (1 samples)
	minimum = 6 (1 samples)
	maximum = 438 (1 samples)
Fragmentation average = 0.00907716 (1 samples)
	minimum = 0 (1 samples)
	maximum = 404 (1 samples)
Injected packet rate average = 0.0806416 (1 samples)
	minimum = 0.0625796 (1 samples)
	maximum = 0.0909091 (1 samples)
Accepted packet rate average = 0.0806416 (1 samples)
	minimum = 0.0625796 (1 samples)
	maximum = 0.0909091 (1 samples)
Injected flit rate average = 0.218108 (1 samples)
	minimum = 0.116459 (1 samples)
	maximum = 0.319333 (1 samples)
Accepted flit rate average = 0.218108 (1 samples)
	minimum = 0.172151 (1 samples)
	maximum = 0.279885 (1 samples)
Injected packet size average = 2.70465 (1 samples)
Accepted packet size average = 2.70465 (1 samples)
Hops average = 1 (1 samples)
----------------------------END-of-Interconnect-DETAILS-------------------------


gpgpu_simulation_time = 0 days, 0 hrs, 3 min, 45 sec (225 sec)
gpgpu_simulation_rate = 323163 (inst/sec)
gpgpu_simulation_rate = 725 (cycle/sec)
GPGPU-Sim: synchronize waiting for inactive GPU simulation
GPGPU-Sim API: Stream Manager State
GPGPU-Sim: detected inactive GPU simulation thread

1x GPU_laplace3d: 224776.000000 (ms) 

Copy u2 to host: 70.014999 (ms) 

1x Gold_laplace3d: 12.855000 (ms) 
 

 rms error = 0.000000 
CUDA_SAFE_CALL( cudaFree(d_u1) );
CUDA_SAFE_CALL( cudaFree(d_u2) );
free(h_u1);
free(h_u2);
free(h_u3);

Press ENTER to exit...
