

        *** GPGPU-Sim Simulator Version 3.2.2  [build 0] ***


GPGPU-Sim PTX: simulation mode 0 (can change with PTX_SIM_MODE_FUNC environment variable:
               1=functional simulation only, 0=detailed performance simulator)
GPGPU-Sim: Configuration options:

-network_mode                           1 # Interconnection network mode
-inter_config_file   config_fermi_islip.icnt # Interconnection network config file
-gpgpu_ptx_use_cuobjdump                    1 # Use cuobjdump to extract ptx and sass from binaries
-gpgpu_experimental_lib_support                    0 # Try to extract code from cuda libraries [Broken because of unknown cudaGetExportTable]
-gpgpu_ptx_convert_to_ptxplus                    0 # Convert SASS (native ISA) to ptxplus and run ptxplus
-gpgpu_ptx_force_max_capability                   20 # Force maximum compute capability
-gpgpu_ptx_inst_debug_to_file                    0 # Dump executed instructions' debug information to file
-gpgpu_ptx_inst_debug_file       inst_debug.txt # Executed instructions' debug output file
-gpgpu_ptx_inst_debug_thread_uid                    1 # Thread UID for executed instructions' debug output
-gpgpu_simd_model                       1 # 1 = post-dominator
-gpgpu_shader_core_pipeline              1536:32 # shader core pipeline config, i.e., {<nthread>:<warpsize>}
-gpgpu_tex_cache:l1  4:128:24,L:R:m:N:L,F:128:4,128:2 # per-shader L1 texture cache  (READ-ONLY) config  {<nsets>:<bsize>:<assoc>,<rep>:<wr>:<alloc>:<wr_alloc>,<mshr>:<N>:<merge>,<mq>:<rf>}
-gpgpu_const_cache:l1 64:64:2,L:R:f:N:L,A:2:32,4 # per-shader L1 constant memory cache  (READ-ONLY) config  {<nsets>:<bsize>:<assoc>,<rep>:<wr>:<alloc>:<wr_alloc>,<mshr>:<N>:<merge>,<mq>} 
-gpgpu_cache:il1     4:128:4,L:R:f:N:L,A:2:32,4 # shader L1 instruction cache config  {<nsets>:<bsize>:<assoc>,<rep>:<wr>:<alloc>:<wr_alloc>,<mshr>:<N>:<merge>,<mq>} 
-gpgpu_cache:dl1     32:128:2,L:L:m:N:H,A:32:8,8 # per-shader L1 data cache config  {<nsets>:<bsize>:<assoc>,<rep>:<wr>:<alloc>:<wr_alloc>,<mshr>:<N>:<merge>,<mq> | none}
-gpgpu_cache:dl1PrefL1                 none # per-shader L1 data cache config  {<nsets>:<bsize>:<assoc>,<rep>:<wr>:<alloc>:<wr_alloc>,<mshr>:<N>:<merge>,<mq> | none}
-gpgpu_cache:dl1PreShared                 none # per-shader L1 data cache config  {<nsets>:<bsize>:<assoc>,<rep>:<wr>:<alloc>:<wr_alloc>,<mshr>:<N>:<merge>,<mq> | none}
-gmem_skip_L1D                          0 # global memory access skip L1D cache (implements -Xptxas -dlcm=cg, default=no skip)
-gpgpu_perfect_mem                      0 # enable perfect memory mode (no cache miss)
-n_regfile_gating_group                    4 # group of lanes that should be read/written together)
-gpgpu_clock_gated_reg_file                    0 # enable clock gated reg file for power calculations
-gpgpu_clock_gated_lanes                    0 # enable clock gated lanes for power calculations
-gpgpu_shader_registers                32768 # Number of registers per shader core. Limits number of concurrent CTAs. (default 8192)
-gpgpu_shader_cta                       8 # Maximum number of concurrent CTAs in shader (default 8)
-gpgpu_num_cta_barriers                   16 # Maximum number of named barriers per CTA (default 16)
-gpgpu_n_clusters                      15 # number of processing clusters
-gpgpu_n_cores_per_cluster                    1 # number of simd cores per cluster
-gpgpu_n_cluster_ejection_buffer_size                    8 # number of packets in ejection buffer
-gpgpu_n_ldst_response_buffer_size                    2 # number of response packets in ld/st unit ejection buffer
-gpgpu_shmem_size                   16384 # Size of shared memory per shader core (default 16kB)
-gpgpu_shmem_size                   49152 # Size of shared memory per shader core (default 16kB)
-gpgpu_shmem_size_PrefL1                16384 # Size of shared memory per shader core (default 16kB)
-gpgpu_shmem_size_PrefShared                16384 # Size of shared memory per shader core (default 16kB)
-gpgpu_shmem_num_banks                   32 # Number of banks in the shared memory in each shader core (default 16)
-gpgpu_shmem_limited_broadcast                    0 # Limit shared memory to do one broadcast per cycle (default on)
-gpgpu_shmem_warp_parts                    1 # Number of portions a warp is divided into for shared memory bank conflict check 
-gpgpu_warpdistro_shader                   -1 # Specify which shader core to collect the warp size distribution from
-gpgpu_warp_issue_shader                    0 # Specify which shader core to collect the warp issue distribution from
-gpgpu_local_mem_map                    1 # Mapping from local memory space address to simulated GPU physical address space (default = enabled)
-gpgpu_num_reg_banks                   16 # Number of register banks (default = 8)
-gpgpu_reg_bank_use_warp_id                    0 # Use warp ID in mapping registers to banks (default = off)
-gpgpu_operand_collector_num_units_sp                    6 # number of collector units (default = 4)
-gpgpu_operand_collector_num_units_sfu                    8 # number of collector units (default = 4)
-gpgpu_operand_collector_num_units_mem                    2 # number of collector units (default = 2)
-gpgpu_operand_collector_num_units_gen                    0 # number of collector units (default = 0)
-gpgpu_operand_collector_num_in_ports_sp                    2 # number of collector unit in ports (default = 1)
-gpgpu_operand_collector_num_in_ports_sfu                    1 # number of collector unit in ports (default = 1)
-gpgpu_operand_collector_num_in_ports_mem                    1 # number of collector unit in ports (default = 1)
-gpgpu_operand_collector_num_in_ports_gen                    0 # number of collector unit in ports (default = 0)
-gpgpu_operand_collector_num_out_ports_sp                    2 # number of collector unit in ports (default = 1)
-gpgpu_operand_collector_num_out_ports_sfu                    1 # number of collector unit in ports (default = 1)
-gpgpu_operand_collector_num_out_ports_mem                    1 # number of collector unit in ports (default = 1)
-gpgpu_operand_collector_num_out_ports_gen                    0 # number of collector unit in ports (default = 0)
-gpgpu_coalesce_arch                   13 # Coalescing arch (default = 13, anything else is off for now)
-gpgpu_num_sched_per_core                    2 # Number of warp schedulers per core
-gpgpu_max_insn_issue_per_warp                    1 # Max number of instructions that can be issued per warp in one cycle by scheduler
-gpgpu_simt_core_sim_order                    1 # Select the simulation order of cores in a cluster (0=Fix, 1=Round-Robin)
-gpgpu_pipeline_widths        2,1,1,2,1,1,2 # Pipeline widths ID_OC_SP,ID_OC_SFU,ID_OC_MEM,OC_EX_SP,OC_EX_SFU,OC_EX_MEM,EX_WB
-gpgpu_num_sp_units                     2 # Number of SP units (default=1)
-gpgpu_num_sfu_units                    1 # Number of SF units (default=1)
-gpgpu_num_mem_units                    1 # Number if ldst units (default=1) WARNING: not hooked up to anything
-gpgpu_scheduler                      gto # Scheduler configuration: < lrr | gto | two_level_active > If two_level_active:<num_active_warps>:<inner_prioritization>:<outer_prioritization>For complete list of prioritization values see shader.h enum scheduler_prioritization_typeDefault: gto
-gpgpu_dram_scheduler                    1 # 0 = fifo, 1 = FR-FCFS (defaul)
-gpgpu_dram_partition_queues              8:8:8:8 # i2$:$2d:d2$:$2i
-l2_ideal                               0 # Use a ideal L2 cache that always hit
-gpgpu_cache:dl2     64:128:8,L:B:m:W:L,A:32:4,4:0,32 # unified banked L2 data cache config  {<nsets>:<bsize>:<assoc>,<rep>:<wr>:<alloc>:<wr_alloc>,<mshr>:<N>:<merge>,<mq>}
-gpgpu_cache:dl2_texture_only                    0 # L2 cache used for texture only
-gpgpu_n_mem                            6 # number of memory modules (e.g. memory controllers) in gpu
-gpgpu_n_sub_partition_per_mchannel                    2 # number of memory subpartition in each memory module
-gpgpu_n_mem_per_ctrlr                    2 # number of memory chips per memory controller
-gpgpu_memlatency_stat                   14 # track and display latency statistics 0x2 enables MC, 0x4 enables queue logs
-gpgpu_frfcfs_dram_sched_queue_size                   16 # 0 = unlimited (default); # entries per chip
-gpgpu_dram_return_queue_size                  116 # 0 = unlimited (default); # entries per chip
-gpgpu_dram_buswidth                    4 # default = 4 bytes (8 bytes per cycle at DDR)
-gpgpu_dram_burst_length                    8 # Burst length of each DRAM request (default = 4 data bus cycle)
-dram_data_command_freq_ratio                    4 # Frequency ratio between DRAM data bus and command bus (default = 2 times, i.e. DDR)
-gpgpu_dram_timing_opt nbk=16:CCD=2:RRD=6:RCD=12:RAS=28:RP=12:RC=40: CL=12:WL=4:CDLR=5:WR=12:nbkgrp=4:CCDL=3:RTPL=2 # DRAM timing parameters = {nbk:tCCD:tRRD:tRCD:tRAS:tRP:tRC:CL:WL:tCDLR:tWR:nbkgrp:tCCDL:tRTPL}
-rop_latency                          120 # ROP queue latency (default 85)
-dram_latency                         100 # DRAM latency (default 30)
-gpgpu_mem_addr_mapping dramid@8;00000000.00000000.00000000.00000000.0000RRRR.RRRRRRRR.BBBCCCCB.CCSSSSSS # mapping memory address to dram model {dramid@<start bit>;<memory address map>}
-gpgpu_mem_addr_test                    0 # run sweep test to check address mapping for aliased address
-gpgpu_mem_address_mask                    1 # 0 = old addressing mask, 1 = new addressing mask, 2 = new add. mask + flipped bank sel and chip sel bits
-gpuwattch_xml_file  gpuwattch_gtx480.xml # GPUWattch XML file
-power_simulation_enabled                    1 # Turn on power simulator (1=On, 0=Off)
-power_per_cycle_dump                    0 # Dump detailed power output each cycle
-power_trace_enabled                    0 # produce a file for the power trace (1=On, 0=Off)
-power_trace_zlevel                     6 # Compression level of the power trace output log (0=no comp, 9=highest)
-steady_power_levels_enabled                    0 # produce a file for the steady power levels (1=On, 0=Off)
-steady_state_definition                  8:4 # allowed deviation:number of samples
-gpgpu_max_cycle                        0 # terminates gpu simulation early (0 = no limit)
-gpgpu_max_insn                         0 # terminates gpu simulation early (0 = no limit)
-gpgpu_max_cta                          0 # terminates gpu simulation early (0 = no limit)
-gpgpu_runtime_stat                   500 # display runtime statistics such as dram utilization {<freq>:<flag>}
-liveness_message_freq                    1 # Minimum number of seconds between simulation liveness messages (0 = always print)
-gpgpu_flush_l1_cache                    0 # Flush L1 cache at the end of each kernel call
-gpgpu_flush_l2_cache                    0 # Flush L2 cache at the end of each kernel call
-gpgpu_deadlock_detect                    1 # Stop the simulation at deadlock (1=on (default), 0=off)
-gpgpu_ptx_instruction_classification                    0 # if enabled will classify ptx instruction types per kernel (Max 255 kernels now)
-gpgpu_ptx_sim_mode                     0 # Select between Performance (default) or Functional simulation (1)
-gpgpu_clock_domains 700.0:700.0:700.0:924.0 # Clock Domain Frequencies in MhZ {<Core Clock>:<ICNT Clock>:<L2 Clock>:<DRAM Clock>}
-gpgpu_max_concurrent_kernel                    8 # maximum kernels that can run concurrently on GPU
-gpgpu_cflog_interval                    0 # Interval between each snapshot in control flow logger
-visualizer_enabled                     0 # Turn on visualizer output (1=On, 0=Off)
-visualizer_outputfile                 NULL # Specifies the output log file for visualizer
-visualizer_zlevel                      6 # Compression level of the visualizer output log (0=no comp, 9=highest)
-trace_enabled                          0 # Turn on traces
-trace_components                    none # comma seperated list of traces to enable. Complete list found in trace_streams.tup. Default none
-trace_sampling_core                    0 # The core which is printed using CORE_DPRINTF. Default 0
-trace_sampling_memory_partition                   -1 # The memory partition which is printed using MEMPART_DPRINTF. Default -1 (i.e. all)
-enable_ptx_file_line_stats                    1 # Turn on PTX source line statistic profiling. (1 = On)
-ptx_line_stats_filename gpgpu_inst_stats.txt # Output file for PTX source line statistics.
-save_embedded_ptx                      0 # saves ptx files embedded in binary as <n>.ptx
-keep                                   0 # keep intermediate files created by GPGPU-Sim when interfacing with external programs
-gpgpu_ptx_save_converted_ptxplus                    0 # Saved converted ptxplus to a file
-ptx_opcode_latency_int         4,13,4,5,145 # Opcode latencies for integers <ADD,MAX,MUL,MAD,DIV>Default 1,1,19,25,145
-ptx_opcode_latency_fp          4,13,4,5,39 # Opcode latencies for single precision floating points <ADD,MAX,MUL,MAD,DIV>Default 1,1,1,1,30
-ptx_opcode_latency_dp         8,19,8,8,330 # Opcode latencies for double precision floating points <ADD,MAX,MUL,MAD,DIV>Default 8,8,8,8,335
-ptx_opcode_initiation_int            1,2,2,1,8 # Opcode initiation intervals for integers <ADD,MAX,MUL,MAD,DIV>Default 1,1,4,4,32
-ptx_opcode_initiation_fp            1,2,1,1,4 # Opcode initiation intervals for single precision floating points <ADD,MAX,MUL,MAD,DIV>Default 1,1,1,1,5
-ptx_opcode_initiation_dp         8,16,8,8,130 # Opcode initiation intervals for double precision floating points <ADD,MAX,MUL,MAD,DIV>Default 8,8,8,8,130
DRAM Timing Options:
nbk                                    16 # number of banks
CCD                                     2 # column to column delay
RRD                                     6 # minimal delay between activation of rows in different banks
RCD                                    12 # row to column delay
RAS                                    28 # time needed to activate row
RP                                     12 # time needed to precharge (deactivate) row
RC                                     40 # row cycle time
CDLR                                    5 # switching from write to read (changes tWTR)
WR                                     12 # last data-in to row precharge
CL                                     12 # CAS latency
WL                                      4 # Write latency
nbkgrp                                  4 # number of bank groups
CCDL                                    3 # column to column delay between accesses to different bank groups
RTPL                                    2 # read to precharge delay between accesses to different bank groups
Total number of memory sub partition = 12
addr_dec_mask[CHIP]  = 0000000000000000 	high:64 low:0
addr_dec_mask[BK]    = 000000000000e100 	high:16 low:8
addr_dec_mask[ROW]   = 000000000fff0000 	high:28 low:16
addr_dec_mask[COL]   = 0000000000001eff 	high:13 low:0
addr_dec_mask[BURST] = 000000000000003f 	high:6 low:0
sub_partition_id_mask = 0000000000000100
GPGPU-Sim uArch: clock freqs: 700000000.000000:700000000.000000:700000000.000000:924000000.000000
GPGPU-Sim uArch: clock periods: 0.00000000142857142857:0.00000000142857142857:0.00000000142857142857:0.00000000108225108225
*** Initializing Memory Statistics ***
GPGPU-Sim uArch: interconnect node map (shaderID+MemID to icntID)
GPGPU-Sim uArch: Memory nodes ID start from index: 15
GPGPU-Sim uArch:    0   1   2   3   4
GPGPU-Sim uArch:    5   6   7   8   9
GPGPU-Sim uArch:   10  11  12  13  14
GPGPU-Sim uArch:   15  16  17  18  19
GPGPU-Sim uArch:   20  21  22  23  24
GPGPU-Sim uArch:   25  26
GPGPU-Sim uArch: interconnect node reverse map (icntID to shaderID+MemID)
GPGPU-Sim uArch: Memory nodes start from ID: 15
GPGPU-Sim uArch:    0   1   2   3   4
GPGPU-Sim uArch:    5   6   7   8   9
GPGPU-Sim uArch:   10  11  12  13  14
GPGPU-Sim uArch:   15  16  17  18  19
GPGPU-Sim uArch:   20  21  22  23  24
GPGPU-Sim uArch:   25  26
36bb1eeaa5c1ff7ca0ddea1af00eaab8  /home/scratch/adwait/applications/benchmarks/CUDA/NN/gpgpu_ptx_sim__NN
GPGPU-Sim uArch: performance model initialization complete.
GPGPU-Sim PTX: __cudaRegisterFatBinary, fat_cubin_handle = 1, filename=NN.cu
self exe links to: /home/scratch/adwait/applications/benchmarks/CUDA/NN/gpgpu_ptx_sim__NN
Running md5sum using "md5sum /home/scratch/adwait/applications/benchmarks/CUDA/NN/gpgpu_ptx_sim__NN "
Running cuobjdump using "$CUDA_INSTALL_PATH/bin/cuobjdump -ptx -elf -sass /home/scratch/adwait/applications/benchmarks/CUDA/NN/gpgpu_ptx_sim__NN > _cuobjdump_complete_output_9t3LzI"
Parsing file _cuobjdump_complete_output_9t3LzI
######### cuobjdump parser ########
## Adding new section ELF
Adding arch: sm_20
Adding identifier: NN.cu
## Adding new section PTX
Adding ptx filename: _cuobjdump_1.ptx
Adding arch: sm_20
Adding identifier: NN.cu
Done parsing!!!
GPGPU-Sim PTX: __cudaRegisterFunction _Z18executeFourthLayerPfS_S_ : hostFun 0x0x402a51, fat_cubin_handle = 1
GPGPU-Sim PTX: allocating constant region for "kernelTemplate" from 0x100 to 0x164 (global memory space) 1
GPGPU-Sim PTX: instruction assembly for function '_Z17executeFirstLayerPfS_S_'...   done.
GPGPU-Sim PTX: finding reconvergence points for '_Z17executeFirstLayerPfS_S_'...
GPGPU-Sim PTX: Finding dominators for '_Z17executeFirstLayerPfS_S_'...
GPGPU-Sim PTX: Finding immediate dominators for '_Z17executeFirstLayerPfS_S_'...
GPGPU-Sim PTX: Finding postdominators for '_Z17executeFirstLayerPfS_S_'...
GPGPU-Sim PTX: Finding immediate postdominators for '_Z17executeFirstLayerPfS_S_'...
GPGPU-Sim PTX: pre-decoding instructions for '_Z17executeFirstLayerPfS_S_'...
GPGPU-Sim PTX: reconvergence points for _Z17executeFirstLayerPfS_S_...
GPGPU-Sim PTX:  1 (potential) branch divergence @  PC=0x100 (_1.ptx:100) @%p1 bra $Lt_0_4098;
GPGPU-Sim PTX:    immediate post dominator      @  PC=0x108 (_1.ptx:102) cvt.f64.f32 %fd1, %f1;
GPGPU-Sim PTX:  2 (potential) branch divergence @  PC=0x148 (_1.ptx:110) @!%p2 bra $Lt_0_4866;
GPGPU-Sim PTX:    immediate post dominator      @  PC=0x2a8 (_1.ptx:162) cvt.f64.f32 %fd5, %f29;
GPGPU-Sim PTX:  3 (potential) branch divergence @  PC=0x230 (_1.ptx:142) bra.uni $Lt_0_4610;
GPGPU-Sim PTX:    immediate post dominator      @  PC=0x2a8 (_1.ptx:162) cvt.f64.f32 %fd5, %f29;
GPGPU-Sim PTX: ... end of reconvergence points for _Z17executeFirstLayerPfS_S_
GPGPU-Sim PTX: ... done pre-decoding instructions for '_Z17executeFirstLayerPfS_S_'.
GPGPU-Sim PTX: allocating constant region for "kernelTemplate2" from 0x180 to 0x1e4 (global memory space) 2
GPGPU-Sim PTX: instruction assembly for function '_Z18executeSecondLayerPfS_S_'...   done.
GPGPU-Sim PTX: finding reconvergence points for '_Z18executeSecondLayerPfS_S_'...
GPGPU-Sim PTX: Finding dominators for '_Z18executeSecondLayerPfS_S_'...
GPGPU-Sim PTX: Finding immediate dominators for '_Z18executeSecondLayerPfS_S_'...
GPGPU-Sim PTX: Finding postdominators for '_Z18executeSecondLayerPfS_S_'...
GPGPU-Sim PTX: Finding immediate postdominators for '_Z18executeSecondLayerPfS_S_'...
GPGPU-Sim PTX: pre-decoding instructions for '_Z18executeSecondLayerPfS_S_'...
GPGPU-Sim PTX: reconvergence points for _Z18executeSecondLayerPfS_S_...
GPGPU-Sim PTX:  1 (potential) branch divergence @  PC=0x4a0 (_1.ptx:251) @%p1 bra $Lt_1_5634;
GPGPU-Sim PTX:    immediate post dominator      @  PC=0x4a8 (_1.ptx:253) cvt.f64.f32 %fd1, %f1;
GPGPU-Sim PTX:  2 (potential) branch divergence @  PC=0x4e8 (_1.ptx:261) @!%p2 bra $Lt_1_6402;
GPGPU-Sim PTX:    immediate post dominator      @  PC=0x648 (_1.ptx:313) cvt.f64.f32 %fd5, %f44;
GPGPU-Sim PTX:  3 (potential) branch divergence @  PC=0x5d0 (_1.ptx:293) bra.uni $Lt_1_6146;
GPGPU-Sim PTX:    immediate post dominator      @  PC=0x648 (_1.ptx:313) cvt.f64.f32 %fd5, %f44;
GPGPU-Sim PTX: ... end of reconvergence points for _Z18executeSecondLayerPfS_S_
GPGPU-Sim PTX: ... done pre-decoding instructions for '_Z18executeSecondLayerPfS_S_'.
GPGPU-Sim PTX: instruction assembly for function '_Z17executeThirdLayerPfS_S_'...   done.
GPGPU-Sim PTX: finding reconvergence points for '_Z17executeThirdLayerPfS_S_'...
GPGPU-Sim PTX: Finding dominators for '_Z17executeThirdLayerPfS_S_'...
GPGPU-Sim PTX: Finding immediate dominators for '_Z17executeThirdLayerPfS_S_'...
GPGPU-Sim PTX: Finding postdominators for '_Z17executeThirdLayerPfS_S_'...
GPGPU-Sim PTX: Finding immediate postdominators for '_Z17executeThirdLayerPfS_S_'...
GPGPU-Sim PTX: pre-decoding instructions for '_Z17executeThirdLayerPfS_S_'...
GPGPU-Sim PTX: reconvergence points for _Z17executeThirdLayerPfS_S_...
GPGPU-Sim PTX:  1 (potential) branch divergence @  PC=0x788 (_1.ptx:373) @%p1 bra $Lt_2_4098;
GPGPU-Sim PTX:    immediate post dominator      @  PC=0x790 (_1.ptx:375) cvt.f64.f32 %fd1, %f1;
GPGPU-Sim PTX:  2 (potential) branch divergence @  PC=0x7d0 (_1.ptx:383) @!%p2 bra $Lt_2_4866;
GPGPU-Sim PTX:    immediate post dominator      @  PC=0x930 (_1.ptx:435) cvt.f64.f32 %fd5, %f29;
GPGPU-Sim PTX:  3 (potential) branch divergence @  PC=0x8b8 (_1.ptx:415) bra.uni $Lt_2_4610;
GPGPU-Sim PTX:    immediate post dominator      @  PC=0x930 (_1.ptx:435) cvt.f64.f32 %fd5, %f29;
GPGPU-Sim PTX: ... end of reconvergence points for _Z17executeThirdLayerPfS_S_
GPGPU-Sim PTX: ... done pre-decoding instructions for '_Z17executeThirdLayerPfS_S_'.
GPGPU-Sim PTX: instruction assembly for function '_Z18executeFourthLayerPfS_S_'...   done.
GPGPU-Sim PTX: finding reconvergence points for '_Z18executeFourthLayerPfS_S_'...
GPGPU-Sim PTX: Finding dominators for '_Z18executeFourthLayerPfS_S_'...
GPGPU-Sim PTX: Finding immediate dominators for '_Z18executeFourthLayerPfS_S_'...
GPGPU-Sim PTX: Finding postdominators for '_Z18executeFourthLayerPfS_S_'...
GPGPU-Sim PTX: Finding immediate postdominators for '_Z18executeFourthLayerPfS_S_'...
GPGPU-Sim PTX: pre-decoding instructions for '_Z18executeFourthLayerPfS_S_'...
GPGPU-Sim PTX: reconvergence points for _Z18executeFourthLayerPfS_S_...
GPGPU-Sim PTX:  1 (potential) branch divergence @  PC=0xa50 (_1.ptx:491) @%p1 bra $Lt_3_4098;
GPGPU-Sim PTX:    immediate post dominator      @  PC=0xa58 (_1.ptx:493) cvt.f64.f32 %fd1, %f1;
GPGPU-Sim PTX:  2 (potential) branch divergence @  PC=0xa98 (_1.ptx:501) @!%p2 bra $Lt_3_4866;
GPGPU-Sim PTX:    immediate post dominator      @  PC=0xbf8 (_1.ptx:553) cvt.f64.f32 %fd5, %f29;
GPGPU-Sim PTX:  3 (potential) branch divergence @  PC=0xb80 (_1.ptx:533) bra.uni $Lt_3_4610;
GPGPU-Sim PTX:    immediate post dominator      @  PC=0xbf8 (_1.ptx:553) cvt.f64.f32 %fd5, %f29;
GPGPU-Sim PTX: ... end of reconvergence points for _Z18executeFourthLayerPfS_S_
GPGPU-Sim PTX: ... done pre-decoding instructions for '_Z18executeFourthLayerPfS_S_'.
GPGPU-Sim PTX: finished parsing EMBEDDED .ptx file _1.ptx
Adding _cuobjdump_1.ptx with cubin handle 1
GPGPU-Sim PTX: extracting embedded .ptx to temporary file "_ptx_nUBYYd"
Running: cat _ptx_nUBYYd | sed 's/.version 1.5/.version 1.4/' | sed 's/, texmode_independent//' | sed 's/\(\.extern \.const\[1\] .b8 \w\+\)\[\]/\1\[1\]/' | sed 's/const\[.\]/const\[0\]/g' > _ptx2_KFFDoJ
GPGPU-Sim PTX: generating ptxinfo using "$CUDA_INSTALL_PATH/bin/ptxas --gpu-name=sm_20 -v _ptx2_KFFDoJ --output-file  /dev/null 2> _ptx_nUBYYdinfo"
GPGPU-Sim PTX: Kernel '_Z18executeFourthLayerPfS_S_' : regs=12, lmem=0, smem=0, cmem=288
GPGPU-Sim PTX: Kernel '_Z17executeThirdLayerPfS_S_' : regs=12, lmem=0, smem=0, cmem=288
GPGPU-Sim PTX: Kernel '_Z18executeSecondLayerPfS_S_' : regs=22, lmem=0, smem=0, cmem=288
GPGPU-Sim PTX: Kernel '_Z17executeFirstLayerPfS_S_' : regs=17, lmem=0, smem=0, cmem=288
GPGPU-Sim PTX: removing ptxinfo using "rm -f _ptx_nUBYYd _ptx2_KFFDoJ _ptx_nUBYYdinfo"
GPGPU-Sim PTX: loading globals with explicit initializers... 
GPGPU-Sim PTX: finished loading globals (0 bytes total).
GPGPU-Sim PTX: loading constants with explicit initializers...  done.
GPGPU-Sim PTX: __cudaRegisterFunction _Z17executeThirdLayerPfS_S_ : hostFun 0x0x40298f, fat_cubin_handle = 1
GPGPU-Sim PTX: __cudaRegisterFunction _Z18executeSecondLayerPfS_S_ : hostFun 0x0x4028cd, fat_cubin_handle = 1
GPGPU-Sim PTX: __cudaRegisterFunction _Z17executeFirstLayerPfS_S_ : hostFun 0x0x40280b, fat_cubin_handle = 1
GPGPU-Sim PTX: __cudaRegisterVar: hostVar = 0x60a180; deviceAddress = kernelTemplate; deviceName = kernelTemplate
GPGPU-Sim PTX: __cudaRegisterVar: Registering const memory space of 100 bytes
GPGPU-Sim PTX registering constant kernelTemplate (100 bytes) to name mapping
GPGPU-Sim PTX: __cudaRegisterVar: hostVar = 0x60a200; deviceAddress = kernelTemplate2; deviceName = kernelTemplate2
GPGPU-Sim PTX: __cudaRegisterVar: Registering const memory space of 100 bytes
GPGPU-Sim PTX registering constant kernelTemplate2 (100 bytes) to name mapping
magic number = 2051
number of items = 10000
number of rows = 28
number of rows = 28
NUM=28

GPGPU-Sim PTX: cudaLaunch for 0x0x40280b (mode=performance simulation) on stream 0
GPGPU-Sim PTX: pushing kernel '_Z17executeFirstLayerPfS_S_' to stream 0, gridDim= (6,28,1) blockDim = (13,13,1) 
kernel '_Z17executeFirstLayerPfS_S_' transfer to GPU hardware scheduler
GPGPU-Sim uArch: Shader 1 bind to kernel 1 '_Z17executeFirstLayerPfS_S_'
GPGPU-Sim uArch: CTA/core = 8, limited by: threads regs cta_limit
GPGPU-Sim uArch: core:  1, cta: 0 initialized @(1,0)
GPGPU-Sim uArch: Shader 2 bind to kernel 1 '_Z17executeFirstLayerPfS_S_'
GPGPU-Sim uArch: core:  2, cta: 0 initialized @(1,0)
GPGPU-Sim uArch: Shader 3 bind to kernel 1 '_Z17executeFirstLayerPfS_S_'
GPGPU-Sim uArch: core:  3, cta: 0 initialized @(1,0)
GPGPU-Sim uArch: Shader 4 bind to kernel 1 '_Z17executeFirstLayerPfS_S_'
GPGPU-Sim uArch: core:  4, cta: 0 initialized @(1,0)
GPGPU-Sim uArch: Shader 5 bind to kernel 1 '_Z17executeFirstLayerPfS_S_'
GPGPU-Sim uArch: core:  5, cta: 0 initialized @(1,0)
GPGPU-Sim uArch: Shader 6 bind to kernel 1 '_Z17executeFirstLayerPfS_S_'
GPGPU-Sim uArch: core:  6, cta: 0 initialized @(1,0)
GPGPU-Sim uArch: Shader 7 bind to kernel 1 '_Z17executeFirstLayerPfS_S_'
GPGPU-Sim uArch: core:  7, cta: 0 initialized @(1,0)
GPGPU-Sim uArch: Shader 8 bind to kernel 1 '_Z17executeFirstLayerPfS_S_'
GPGPU-Sim uArch: core:  8, cta: 0 initialized @(1,0)
GPGPU-Sim uArch: Shader 9 bind to kernel 1 '_Z17executeFirstLayerPfS_S_'
GPGPU-Sim uArch: core:  9, cta: 0 initialized @(1,0)
GPGPU-Sim uArch: Shader 10 bind to kernel 1 '_Z17executeFirstLayerPfS_S_'
GPGPU-Sim uArch: core: 10, cta: 0 initialized @(1,0)
GPGPU-Sim uArch: Shader 11 bind to kernel 1 '_Z17executeFirstLayerPfS_S_'
GPGPU-Sim uArch: core: 11, cta: 0 initialized @(1,0)
GPGPU-Sim uArch: Shader 12 bind to kernel 1 '_Z17executeFirstLayerPfS_S_'
GPGPU-Sim uArch: core: 12, cta: 0 initialized @(1,0)
GPGPU-Sim uArch: Shader 13 bind to kernel 1 '_Z17executeFirstLayerPfS_S_'
GPGPU-Sim uArch: core: 13, cta: 0 initialized @(1,0)
GPGPU-Sim uArch: Shader 14 bind to kernel 1 '_Z17executeFirstLayerPfS_S_'
GPGPU-Sim uArch: core: 14, cta: 0 initialized @(1,0)
GPGPU-Sim uArch: Shader 0 bind to kernel 1 '_Z17executeFirstLayerPfS_S_'
GPGPU-Sim uArch: core:  0, cta: 0 initialized @(1,0)
GPGPU-Sim uArch: core:  1, cta: 1 initialized @(2,0)
GPGPU-Sim uArch: core:  2, cta: 1 initialized @(2,0)
GPGPU-Sim uArch: core:  3, cta: 1 initialized @(2,0)
GPGPU-Sim uArch: core:  4, cta: 1 initialized @(2,0)
GPGPU-Sim uArch: core:  5, cta: 1 initialized @(2,0)
GPGPU-Sim uArch: core:  6, cta: 1 initialized @(2,0)
GPGPU-Sim uArch: core:  7, cta: 1 initialized @(2,0)
GPGPU-Sim uArch: core:  8, cta: 1 initialized @(2,0)
GPGPU-Sim uArch: core:  9, cta: 1 initialized @(2,0)
GPGPU-Sim uArch: core: 10, cta: 1 initialized @(2,0)
GPGPU-Sim uArch: core: 11, cta: 1 initialized @(2,0)
GPGPU-Sim uArch: core: 12, cta: 1 initialized @(2,0)
GPGPU-Sim uArch: core: 13, cta: 1 initialized @(2,0)
GPGPU-Sim uArch: core: 14, cta: 1 initialized @(2,0)
GPGPU-Sim uArch: core:  0, cta: 1 initialized @(2,0)
GPGPU-Sim uArch: core:  1, cta: 2 initialized @(3,0)
GPGPU-Sim uArch: core:  2, cta: 2 initialized @(3,0)
GPGPU-Sim uArch: core:  3, cta: 2 initialized @(3,0)
GPGPU-Sim uArch: core:  4, cta: 2 initialized @(3,0)
GPGPU-Sim uArch: core:  5, cta: 2 initialized @(3,0)
GPGPU-Sim uArch: core:  6, cta: 2 initialized @(3,0)
GPGPU-Sim uArch: core:  7, cta: 2 initialized @(3,0)
GPGPU-Sim uArch: core:  8, cta: 2 initialized @(3,0)
GPGPU-Sim uArch: core:  9, cta: 2 initialized @(3,0)
GPGPU-Sim uArch: core: 10, cta: 2 initialized @(3,0)
GPGPU-Sim uArch: core: 11, cta: 2 initialized @(3,0)
GPGPU-Sim uArch: core: 12, cta: 2 initialized @(3,0)
GPGPU-Sim uArch: core: 13, cta: 2 initialized @(3,0)
GPGPU-Sim uArch: core: 14, cta: 2 initialized @(3,0)
GPGPU-Sim uArch: core:  0, cta: 2 initialized @(3,0)
GPGPU-Sim uArch: core:  1, cta: 3 initialized @(4,0)
GPGPU-Sim uArch: core:  2, cta: 3 initialized @(4,0)
GPGPU-Sim uArch: core:  3, cta: 3 initialized @(4,0)
GPGPU-Sim uArch: core:  4, cta: 3 initialized @(4,0)
GPGPU-Sim uArch: core:  5, cta: 3 initialized @(4,0)
GPGPU-Sim uArch: core:  6, cta: 3 initialized @(4,0)
GPGPU-Sim uArch: core:  7, cta: 3 initialized @(4,0)
GPGPU-Sim uArch: core:  8, cta: 3 initialized @(4,0)
GPGPU-Sim uArch: core:  9, cta: 3 initialized @(4,0)
GPGPU-Sim uArch: core: 10, cta: 3 initialized @(4,0)
GPGPU-Sim uArch: core: 11, cta: 3 initialized @(4,0)
GPGPU-Sim uArch: core: 12, cta: 3 initialized @(4,0)
GPGPU-Sim uArch: core: 13, cta: 3 initialized @(4,0)
GPGPU-Sim uArch: core: 14, cta: 3 initialized @(4,0)
GPGPU-Sim uArch: core:  0, cta: 3 initialized @(4,0)
GPGPU-Sim uArch: core:  1, cta: 4 initialized @(5,0)
GPGPU-Sim uArch: core:  2, cta: 4 initialized @(5,0)
GPGPU-Sim uArch: core:  3, cta: 4 initialized @(5,0)
GPGPU-Sim uArch: core:  4, cta: 4 initialized @(5,0)
GPGPU-Sim uArch: core:  5, cta: 4 initialized @(5,0)
GPGPU-Sim uArch: core:  6, cta: 4 initialized @(5,0)
GPGPU-Sim uArch: core:  7, cta: 4 initialized @(5,0)
GPGPU-Sim uArch: core:  8, cta: 4 initialized @(5,0)
GPGPU-Sim uArch: core:  9, cta: 4 initialized @(5,0)
GPGPU-Sim uArch: core: 10, cta: 4 initialized @(5,0)
GPGPU-Sim uArch: core: 11, cta: 4 initialized @(5,0)
GPGPU-Sim uArch: core: 12, cta: 4 initialized @(5,0)
GPGPU-Sim uArch: core: 13, cta: 4 initialized @(5,0)
GPGPU-Sim uArch: core: 14, cta: 4 initialized @(5,0)
GPGPU-Sim uArch: core:  0, cta: 4 initialized @(5,0)
GPGPU-Sim uArch: core:  1, cta: 5 initialized @(6,0)
GPGPU-Sim uArch: core:  2, cta: 5 initialized @(6,0)
GPGPU-Sim uArch: core:  3, cta: 5 initialized @(6,0)
GPGPU-Sim uArch: core:  4, cta: 5 initialized @(6,0)
GPGPU-Sim uArch: core:  5, cta: 5 initialized @(6,0)
GPGPU-Sim uArch: core:  6, cta: 5 initialized @(6,0)
GPGPU-Sim uArch: core:  7, cta: 5 initialized @(6,0)
GPGPU-Sim uArch: core:  8, cta: 5 initialized @(6,0)
GPGPU-Sim uArch: core:  9, cta: 5 initialized @(6,0)
GPGPU-Sim uArch: core: 10, cta: 5 initialized @(6,0)
GPGPU-Sim uArch: core: 11, cta: 5 initialized @(6,0)
GPGPU-Sim uArch: core: 12, cta: 5 initialized @(6,0)
GPGPU-Sim uArch: core: 13, cta: 5 initialized @(6,0)
GPGPU-Sim uArch: core: 14, cta: 5 initialized @(6,0)
GPGPU-Sim uArch: core:  0, cta: 5 initialized @(6,0)
GPGPU-Sim uArch: core:  1, cta: 6 initialized @(7,0)
GPGPU-Sim uArch: core:  2, cta: 6 initialized @(7,0)
GPGPU-Sim uArch: core:  3, cta: 6 initialized @(7,0)
GPGPU-Sim uArch: core:  4, cta: 6 initialized @(7,0)
GPGPU-Sim uArch: core:  5, cta: 6 initialized @(7,0)
GPGPU-Sim uArch: core:  6, cta: 6 initialized @(7,0)
GPGPU-Sim uArch: core:  7, cta: 6 initialized @(7,0)
GPGPU-Sim uArch: core:  8, cta: 6 initialized @(7,0)
GPGPU-Sim uArch: core:  9, cta: 6 initialized @(7,0)
GPGPU-Sim uArch: core: 10, cta: 6 initialized @(7,0)
GPGPU-Sim uArch: core: 11, cta: 6 initialized @(7,0)
GPGPU-Sim uArch: core: 12, cta: 6 initialized @(7,0)
GPGPU-Sim uArch: core: 13, cta: 6 initialized @(7,0)
GPGPU-Sim uArch: core: 14, cta: 6 initialized @(7,0)
GPGPU-Sim uArch: core:  0, cta: 6 initialized @(7,0)
GPGPU-Sim uArch: core:  1, cta: 7 initialized @(8,0)
GPGPU-Sim uArch: core:  2, cta: 7 initialized @(8,0)
GPGPU-Sim uArch: core:  3, cta: 7 initialized @(8,0)
GPGPU-Sim uArch: core:  4, cta: 7 initialized @(8,0)
GPGPU-Sim uArch: core:  5, cta: 7 initialized @(8,0)
GPGPU-Sim uArch: core:  6, cta: 7 initialized @(8,0)
GPGPU-Sim uArch: core:  7, cta: 7 initialized @(8,0)
GPGPU-Sim uArch: core:  8, cta: 7 initialized @(8,0)
GPGPU-Sim uArch: core:  9, cta: 7 initialized @(8,0)
GPGPU-Sim uArch: core: 10, cta: 7 initialized @(8,0)
GPGPU-Sim uArch: core: 11, cta: 7 initialized @(8,0)
GPGPU-Sim uArch: core: 12, cta: 7 initialized @(8,0)
GPGPU-Sim uArch: core: 13, cta: 7 initialized @(8,0)
GPGPU-Sim uArch: core: 14, cta: 7 initialized @(8,0)
GPGPU-Sim uArch: core:  0, cta: 7 initialized @(8,0)
GPGPU-Sim uArch: cycles simulated: 500  inst.: 70695 (ipc=141.4) sim_rate=70695 (inst/sec) elapsed = 0:0:00:01 / Tue Apr 16 16:48:48 2019
GPGPU-Sim PTX: 100000 instructions simulated : ctaid=(2,0,0) tid=(0,12,0)
GPGPU-Sim PTX: 200000 instructions simulated : ctaid=(5,7,0) tid=(8,5,0)
GPGPU-Sim PTX: 300000 instructions simulated : ctaid=(3,13,0) tid=(9,12,0)
GPGPU-Sim PTX: 400000 instructions simulated : ctaid=(0,0,0) tid=(9,5,0)
GPGPU-Sim uArch: cycles simulated: 1500  inst.: 491535 (ipc=327.7) sim_rate=245767 (inst/sec) elapsed = 0:0:00:02 / Tue Apr 16 16:48:49 2019
GPGPU-Sim PTX: 500000 instructions simulated : ctaid=(1,0,0) tid=(7,6,0)
GPGPU-Sim uArch: cycles simulated: 2500  inst.: 551269 (ipc=220.5) sim_rate=183756 (inst/sec) elapsed = 0:0:00:03 / Tue Apr 16 16:48:50 2019
GPGPU-Sim PTX: 600000 instructions simulated : ctaid=(0,0,0) tid=(1,7,0)
GPGPU-Sim uArch: cycles simulated: 3500  inst.: 671258 (ipc=191.8) sim_rate=167814 (inst/sec) elapsed = 0:0:00:04 / Tue Apr 16 16:48:51 2019
GPGPU-Sim PTX: 700000 instructions simulated : ctaid=(3,1,0) tid=(6,0,0)
GPGPU-Sim uArch: cycles simulated: 4000  inst.: 743155 (ipc=185.8) sim_rate=148631 (inst/sec) elapsed = 0:0:00:05 / Tue Apr 16 16:48:52 2019
GPGPU-Sim PTX: 800000 instructions simulated : ctaid=(0,12,0) tid=(12,0,0)
GPGPU-Sim uArch: cycles simulated: 4500  inst.: 817868 (ipc=181.7) sim_rate=136311 (inst/sec) elapsed = 0:0:00:06 / Tue Apr 16 16:48:53 2019
GPGPU-Sim PTX: 900000 instructions simulated : ctaid=(0,4,0) tid=(11,12,0)
GPGPU-Sim uArch: cycles simulated: 5000  inst.: 900034 (ipc=180.0) sim_rate=128576 (inst/sec) elapsed = 0:0:00:07 / Tue Apr 16 16:48:54 2019
GPGPU-Sim PTX: 1000000 instructions simulated : ctaid=(2,12,0) tid=(10,10,0)
GPGPU-Sim uArch: cycles simulated: 6000  inst.: 1065947 (ipc=177.7) sim_rate=133243 (inst/sec) elapsed = 0:0:00:08 / Tue Apr 16 16:48:55 2019
GPGPU-Sim PTX: 1100000 instructions simulated : ctaid=(4,5,0) tid=(0,5,0)
GPGPU-Sim PTX: 1200000 instructions simulated : ctaid=(0,1,0) tid=(2,0,0)
GPGPU-Sim uArch: cycles simulated: 7000  inst.: 1224155 (ipc=174.9) sim_rate=136017 (inst/sec) elapsed = 0:0:00:09 / Tue Apr 16 16:48:56 2019
GPGPU-Sim PTX: 1300000 instructions simulated : ctaid=(2,5,0) tid=(9,5,0)
GPGPU-Sim PTX: 1400000 instructions simulated : ctaid=(5,1,0) tid=(3,8,0)
GPGPU-Sim uArch: cycles simulated: 8500  inst.: 1472197 (ipc=173.2) sim_rate=147219 (inst/sec) elapsed = 0:0:00:10 / Tue Apr 16 16:48:57 2019
GPGPU-Sim PTX: 1500000 instructions simulated : ctaid=(4,1,0) tid=(9,12,0)
GPGPU-Sim PTX: 1600000 instructions simulated : ctaid=(2,5,0) tid=(0,2,0)
GPGPU-Sim PTX: 1700000 instructions simulated : ctaid=(5,4,0) tid=(10,8,0)
GPGPU-Sim uArch: cycles simulated: 10000  inst.: 1732190 (ipc=173.2) sim_rate=157471 (inst/sec) elapsed = 0:0:00:11 / Tue Apr 16 16:48:58 2019
GPGPU-Sim PTX: 1800000 instructions simulated : ctaid=(3,9,0) tid=(11,9,0)
GPGPU-Sim uArch: cycles simulated: 11000  inst.: 1892047 (ipc=172.0) sim_rate=157670 (inst/sec) elapsed = 0:0:00:12 / Tue Apr 16 16:48:59 2019
GPGPU-Sim PTX: 1900000 instructions simulated : ctaid=(4,5,0) tid=(6,1,0)
GPGPU-Sim PTX: 2000000 instructions simulated : ctaid=(3,7,0) tid=(1,2,0)
GPGPU-Sim uArch: cycles simulated: 12000  inst.: 2057258 (ipc=171.4) sim_rate=158250 (inst/sec) elapsed = 0:0:00:13 / Tue Apr 16 16:49:00 2019
GPGPU-Sim PTX: 2100000 instructions simulated : ctaid=(2,3,0) tid=(10,8,0)
GPGPU-Sim PTX: 2200000 instructions simulated : ctaid=(1,8,0) tid=(0,5,0)
GPGPU-Sim PTX: 2300000 instructions simulated : ctaid=(3,6,0) tid=(11,1,0)
GPGPU-Sim uArch: cycles simulated: 13500  inst.: 2313595 (ipc=171.4) sim_rate=165256 (inst/sec) elapsed = 0:0:00:14 / Tue Apr 16 16:49:01 2019
GPGPU-Sim PTX: 2400000 instructions simulated : ctaid=(4,2,0) tid=(10,12,0)
GPGPU-Sim PTX: 2500000 instructions simulated : ctaid=(3,0,0) tid=(7,9,0)
GPGPU-Sim uArch: cycles simulated: 15000  inst.: 2565815 (ipc=171.1) sim_rate=171054 (inst/sec) elapsed = 0:0:00:15 / Tue Apr 16 16:49:02 2019
GPGPU-Sim PTX: 2600000 instructions simulated : ctaid=(3,2,0) tid=(7,1,0)
GPGPU-Sim PTX: 2700000 instructions simulated : ctaid=(4,5,0) tid=(10,9,0)
GPGPU-Sim uArch: cycles simulated: 16000  inst.: 2729382 (ipc=170.6) sim_rate=170586 (inst/sec) elapsed = 0:0:00:16 / Tue Apr 16 16:49:03 2019
GPGPU-Sim PTX: 2800000 instructions simulated : ctaid=(1,3,0) tid=(10,4,0)
GPGPU-Sim PTX: 2900000 instructions simulated : ctaid=(1,2,0) tid=(1,11,0)
GPGPU-Sim PTX: 3000000 instructions simulated : ctaid=(2,4,0) tid=(1,3,0)
GPGPU-Sim uArch: cycles simulated: 17500  inst.: 3010408 (ipc=172.0) sim_rate=177082 (inst/sec) elapsed = 0:0:00:17 / Tue Apr 16 16:49:04 2019
GPGPU-Sim PTX: 3100000 instructions simulated : ctaid=(1,4,0) tid=(10,12,0)
GPGPU-Sim PTX: 3200000 instructions simulated : ctaid=(4,6,0) tid=(6,10,0)
GPGPU-Sim uArch: cycles simulated: 18500  inst.: 3195189 (ipc=172.7) sim_rate=177510 (inst/sec) elapsed = 0:0:00:18 / Tue Apr 16 16:49:05 2019
GPGPU-Sim PTX: 3300000 instructions simulated : ctaid=(4,5,0) tid=(12,0,0)
GPGPU-Sim uArch: Shader 12 finished CTA #0 (19546,0), 7 CTAs running
GPGPU-Sim uArch: core: 12, cta: 0 initialized @(19547,0)
GPGPU-Sim PTX: 3400000 instructions simulated : ctaid=(5,8,0) tid=(4,7,0)
GPGPU-Sim uArch: cycles simulated: 20000  inst.: 3457160 (ipc=172.9) sim_rate=181955 (inst/sec) elapsed = 0:0:00:19 / Tue Apr 16 16:49:06 2019
GPGPU-Sim uArch: Shader 5 finished CTA #0 (20041,0), 7 CTAs running
GPGPU-Sim uArch: core:  5, cta: 0 initialized @(20042,0)
GPGPU-Sim PTX: 3500000 instructions simulated : ctaid=(1,10,0) tid=(6,0,0)
GPGPU-Sim PTX: 3600000 instructions simulated : ctaid=(1,5,0) tid=(4,10,0)
GPGPU-Sim uArch: Shader 10 finished CTA #0 (20853,0), 7 CTAs running
GPGPU-Sim uArch: core: 10, cta: 0 initialized @(20854,0)
GPGPU-Sim uArch: cycles simulated: 21000  inst.: 3630423 (ipc=172.9) sim_rate=181521 (inst/sec) elapsed = 0:0:00:20 / Tue Apr 16 16:49:07 2019
GPGPU-Sim uArch: Shader 6 finished CTA #0 (21028,0), 7 CTAs running
GPGPU-Sim uArch: core:  6, cta: 0 initialized @(21029,0)
GPGPU-Sim uArch: Shader 4 finished CTA #0 (21133,0), 7 CTAs running
GPGPU-Sim uArch: core:  4, cta: 0 initialized @(21134,0)
GPGPU-Sim uArch: Shader 11 finished CTA #0 (21181,0), 7 CTAs running
GPGPU-Sim uArch: core: 11, cta: 0 initialized @(21182,0)
GPGPU-Sim PTX: 3700000 instructions simulated : ctaid=(0,13,0) tid=(2,10,0)
GPGPU-Sim uArch: cycles simulated: 21500  inst.: 3714346 (ipc=172.8) sim_rate=176873 (inst/sec) elapsed = 0:0:00:21 / Tue Apr 16 16:49:08 2019
GPGPU-Sim uArch: Shader 3 finished CTA #0 (21536,0), 7 CTAs running
GPGPU-Sim uArch: core:  3, cta: 0 initialized @(21537,0)
GPGPU-Sim uArch: Shader 0 finished CTA #0 (21918,0), 7 CTAs running
GPGPU-Sim uArch: core:  0, cta: 0 initialized @(21919,0)
GPGPU-Sim PTX: 3800000 instructions simulated : ctaid=(1,17,0) tid=(1,6,0)
GPGPU-Sim uArch: cycles simulated: 22500  inst.: 3876138 (ipc=172.3) sim_rate=176188 (inst/sec) elapsed = 0:0:00:22 / Tue Apr 16 16:49:09 2019
GPGPU-Sim PTX: 3900000 instructions simulated : ctaid=(5,7,0) tid=(0,0,0)
GPGPU-Sim uArch: Shader 13 finished CTA #0 (22891,0), 7 CTAs running
GPGPU-Sim uArch: core: 13, cta: 0 initialized @(22892,0)
GPGPU-Sim uArch: Shader 1 finished CTA #0 (22978,0), 7 CTAs running
GPGPU-Sim uArch: core:  1, cta: 0 initialized @(22979,0)
GPGPU-Sim PTX: 4000000 instructions simulated : ctaid=(3,11,0) tid=(8,0,0)
GPGPU-Sim uArch: Shader 2 finished CTA #0 (23499,0), 7 CTAs running
GPGPU-Sim uArch: core:  2, cta: 0 initialized @(23500,0)
GPGPU-Sim uArch: Shader 14 finished CTA #0 (23559,0), 7 CTAs running
GPGPU-Sim uArch: core: 14, cta: 0 initialized @(23560,0)
GPGPU-Sim PTX: 4100000 instructions simulated : ctaid=(3,7,0) tid=(1,5,0)
GPGPU-Sim uArch: cycles simulated: 24000  inst.: 4131106 (ipc=172.1) sim_rate=179613 (inst/sec) elapsed = 0:0:00:23 / Tue Apr 16 16:49:10 2019
GPGPU-Sim PTX: 4200000 instructions simulated : ctaid=(3,15,0) tid=(6,0,0)
GPGPU-Sim PTX: 4300000 instructions simulated : ctaid=(5,13,0) tid=(4,11,0)
GPGPU-Sim uArch: cycles simulated: 25000  inst.: 4289568 (ipc=171.6) sim_rate=178732 (inst/sec) elapsed = 0:0:00:24 / Tue Apr 16 16:49:11 2019
GPGPU-Sim PTX: 4400000 instructions simulated : ctaid=(3,10,0) tid=(7,7,0)
GPGPU-Sim PTX: 4500000 instructions simulated : ctaid=(0,14,0) tid=(5,10,0)
GPGPU-Sim uArch: Shader 9 finished CTA #0 (26383,0), 7 CTAs running
GPGPU-Sim uArch: core:  9, cta: 0 initialized @(26384,0)
GPGPU-Sim uArch: cycles simulated: 26500  inst.: 4529275 (ipc=170.9) sim_rate=181171 (inst/sec) elapsed = 0:0:00:25 / Tue Apr 16 16:49:12 2019
GPGPU-Sim uArch: Shader 5 finished CTA #1 (26502,0), 7 CTAs running
GPGPU-Sim uArch: core:  5, cta: 1 initialized @(26503,0)
GPGPU-Sim uArch: Shader 7 finished CTA #0 (26679,0), 7 CTAs running
GPGPU-Sim uArch: core:  7, cta: 0 initialized @(26680,0)
GPGPU-Sim uArch: Shader 8 finished CTA #0 (26688,0), 7 CTAs running
GPGPU-Sim uArch: core:  8, cta: 0 initialized @(26689,0)
GPGPU-Sim PTX: 4600000 instructions simulated : ctaid=(5,3,0) tid=(3,8,0)
GPGPU-Sim uArch: Shader 6 finished CTA #1 (26948,0), 7 CTAs running
GPGPU-Sim uArch: core:  6, cta: 1 initialized @(26949,0)
GPGPU-Sim PTX: 4700000 instructions simulated : ctaid=(4,15,0) tid=(5,11,0)
GPGPU-Sim uArch: cycles simulated: 27500  inst.: 4698572 (ipc=170.9) sim_rate=180714 (inst/sec) elapsed = 0:0:00:26 / Tue Apr 16 16:49:13 2019
GPGPU-Sim uArch: Shader 2 finished CTA #1 (27992,0), 7 CTAs running
GPGPU-Sim uArch: core:  2, cta: 1 initialized @(27993,0)
GPGPU-Sim PTX: 4800000 instructions simulated : ctaid=(5,5,0) tid=(9,3,0)
GPGPU-Sim uArch: Shader 1 finished CTA #1 (28084,0), 7 CTAs running
GPGPU-Sim uArch: core:  1, cta: 1 initialized @(28085,0)
GPGPU-Sim uArch: Shader 4 finished CTA #1 (28148,0), 7 CTAs running
GPGPU-Sim uArch: core:  4, cta: 1 initialized @(28149,0)
GPGPU-Sim uArch: cycles simulated: 28500  inst.: 4863626 (ipc=170.7) sim_rate=180134 (inst/sec) elapsed = 0:0:00:27 / Tue Apr 16 16:49:14 2019
GPGPU-Sim uArch: Shader 3 finished CTA #1 (28572,0), 7 CTAs running
GPGPU-Sim uArch: core:  3, cta: 1 initialized @(28573,0)
GPGPU-Sim PTX: 4900000 instructions simulated : ctaid=(0,10,0) tid=(3,7,0)
GPGPU-Sim uArch: Shader 10 finished CTA #1 (28775,0), 7 CTAs running
GPGPU-Sim uArch: core: 10, cta: 1 initialized @(28776,0)
GPGPU-Sim uArch: Shader 0 finished CTA #1 (28804,0), 7 CTAs running
GPGPU-Sim uArch: core:  0, cta: 1 initialized @(28805,0)
GPGPU-Sim uArch: cycles simulated: 29000  inst.: 4952134 (ipc=170.8) sim_rate=176861 (inst/sec) elapsed = 0:0:00:28 / Tue Apr 16 16:49:15 2019
GPGPU-Sim PTX: 5000000 instructions simulated : ctaid=(3,13,0) tid=(7,11,0)
GPGPU-Sim uArch: Shader 11 finished CTA #1 (29523,0), 7 CTAs running
GPGPU-Sim uArch: core: 11, cta: 1 initialized @(29524,0)
GPGPU-Sim PTX: 5100000 instructions simulated : ctaid=(2,12,0) tid=(7,11,0)
GPGPU-Sim uArch: cycles simulated: 30000  inst.: 5109650 (ipc=170.3) sim_rate=176194 (inst/sec) elapsed = 0:0:00:29 / Tue Apr 16 16:49:16 2019
GPGPU-Sim PTX: 5200000 instructions simulated : ctaid=(0,17,0) tid=(4,7,0)
GPGPU-Sim uArch: Shader 9 finished CTA #1 (30912,0), 7 CTAs running
GPGPU-Sim uArch: core:  9, cta: 1 initialized @(30913,0)
GPGPU-Sim uArch: cycles simulated: 31000  inst.: 5271140 (ipc=170.0) sim_rate=175704 (inst/sec) elapsed = 0:0:00:30 / Tue Apr 16 16:49:17 2019
GPGPU-Sim PTX: 5300000 instructions simulated : ctaid=(1,8,0) tid=(7,9,0)
GPGPU-Sim uArch: Shader 12 finished CTA #1 (31205,0), 7 CTAs running
GPGPU-Sim uArch: core: 12, cta: 1 initialized @(31206,0)
GPGPU-Sim uArch: Shader 13 finished CTA #1 (31313,0), 7 CTAs running
GPGPU-Sim uArch: core: 13, cta: 1 initialized @(31314,0)
GPGPU-Sim PTX: 5400000 instructions simulated : ctaid=(0,10,0) tid=(11,2,0)
GPGPU-Sim PTX: 5500000 instructions simulated : ctaid=(1,12,0) tid=(4,10,0)
GPGPU-Sim uArch: Shader 14 finished CTA #1 (32295,0), 7 CTAs running
GPGPU-Sim uArch: core: 14, cta: 1 initialized @(32296,0)
GPGPU-Sim uArch: cycles simulated: 32500  inst.: 5515228 (ipc=169.7) sim_rate=177910 (inst/sec) elapsed = 0:0:00:31 / Tue Apr 16 16:49:18 2019
GPGPU-Sim PTX: 5600000 instructions simulated : ctaid=(4,11,0) tid=(3,10,0)
GPGPU-Sim uArch: Shader 8 finished CTA #1 (33257,0), 7 CTAs running
GPGPU-Sim uArch: core:  8, cta: 1 initialized @(33258,0)
GPGPU-Sim uArch: Shader 7 finished CTA #1 (33334,0), 7 CTAs running
GPGPU-Sim uArch: core:  7, cta: 1 initialized @(33335,0)
GPGPU-Sim PTX: 5700000 instructions simulated : ctaid=(5,18,0) tid=(10,5,0)
GPGPU-Sim uArch: cycles simulated: 34000  inst.: 5753156 (ipc=169.2) sim_rate=179786 (inst/sec) elapsed = 0:0:00:32 / Tue Apr 16 16:49:19 2019
GPGPU-Sim PTX: 5800000 instructions simulated : ctaid=(1,13,0) tid=(4,4,0)
GPGPU-Sim PTX: 5900000 instructions simulated : ctaid=(2,10,0) tid=(3,9,0)
GPGPU-Sim uArch: cycles simulated: 35000  inst.: 5905699 (ipc=168.7) sim_rate=178960 (inst/sec) elapsed = 0:0:00:33 / Tue Apr 16 16:49:20 2019
GPGPU-Sim uArch: Shader 6 finished CTA #2 (35077,0), 7 CTAs running
GPGPU-Sim uArch: core:  6, cta: 2 initialized @(35078,0)
GPGPU-Sim uArch: Shader 4 finished CTA #2 (35325,0), 7 CTAs running
GPGPU-Sim uArch: core:  4, cta: 2 initialized @(35326,0)
GPGPU-Sim PTX: 6000000 instructions simulated : ctaid=(1,19,0) tid=(0,0,0)
GPGPU-Sim uArch: Shader 3 finished CTA #2 (35550,0), 7 CTAs running
GPGPU-Sim uArch: core:  3, cta: 2 initialized @(35551,0)
GPGPU-Sim uArch: Shader 1 finished CTA #2 (35591,0), 7 CTAs running
GPGPU-Sim uArch: core:  1, cta: 2 initialized @(35592,0)
GPGPU-Sim uArch: Shader 2 finished CTA #2 (35615,0), 7 CTAs running
GPGPU-Sim uArch: core:  2, cta: 2 initialized @(35616,0)
GPGPU-Sim uArch: cycles simulated: 36000  inst.: 6061049 (ipc=168.4) sim_rate=178266 (inst/sec) elapsed = 0:0:00:34 / Tue Apr 16 16:49:21 2019
GPGPU-Sim PTX: 6100000 instructions simulated : ctaid=(2,13,0) tid=(11,6,0)
GPGPU-Sim uArch: Shader 5 finished CTA #2 (36232,0), 7 CTAs running
GPGPU-Sim uArch: core:  5, cta: 2 initialized @(36233,0)
GPGPU-Sim PTX: 6200000 instructions simulated : ctaid=(1,23,0) tid=(3,1,0)
GPGPU-Sim PTX: 6300000 instructions simulated : ctaid=(1,22,0) tid=(2,0,0)
GPGPU-Sim uArch: Shader 0 finished CTA #2 (37433,0), 7 CTAs running
GPGPU-Sim uArch: core:  0, cta: 2 initialized @(37434,0)
GPGPU-Sim uArch: cycles simulated: 37500  inst.: 6310704 (ipc=168.3) sim_rate=180305 (inst/sec) elapsed = 0:0:00:35 / Tue Apr 16 16:49:22 2019
GPGPU-Sim PTX: 6400000 instructions simulated : ctaid=(3,17,0) tid=(2,1,0)
GPGPU-Sim uArch: Shader 11 finished CTA #2 (37984,0), 7 CTAs running
GPGPU-Sim uArch: core: 11, cta: 2 initialized @(37985,0)
GPGPU-Sim uArch: cycles simulated: 38000  inst.: 6388141 (ipc=168.1) sim_rate=177448 (inst/sec) elapsed = 0:0:00:36 / Tue Apr 16 16:49:23 2019
GPGPU-Sim uArch: Shader 10 finished CTA #2 (38154,0), 7 CTAs running
GPGPU-Sim uArch: core: 10, cta: 2 initialized @(38155,0)
GPGPU-Sim PTX: 6500000 instructions simulated : ctaid=(2,8,0) tid=(0,3,0)
GPGPU-Sim uArch: Shader 12 finished CTA #2 (39114,0), 7 CTAs running
GPGPU-Sim uArch: core: 12, cta: 2 initialized @(39115,0)
GPGPU-Sim PTX: 6600000 instructions simulated : ctaid=(0,15,0) tid=(1,10,0)
GPGPU-Sim uArch: cycles simulated: 39500  inst.: 6625682 (ipc=167.7) sim_rate=179072 (inst/sec) elapsed = 0:0:00:37 / Tue Apr 16 16:49:24 2019
GPGPU-Sim uArch: Shader 13 finished CTA #2 (39687,0), 7 CTAs running
GPGPU-Sim uArch: core: 13, cta: 2 initialized @(39688,0)
GPGPU-Sim PTX: 6700000 instructions simulated : ctaid=(0,21,0) tid=(11,5,0)
GPGPU-Sim PTX: 6800000 instructions simulated : ctaid=(0,16,0) tid=(6,1,0)
GPGPU-Sim uArch: Shader 8 finished CTA #2 (40452,0), 7 CTAs running
GPGPU-Sim uArch: core:  8, cta: 2 initialized @(40453,0)
GPGPU-Sim uArch: Shader 9 finished CTA #2 (40649,0), 7 CTAs running
GPGPU-Sim uArch: core:  9, cta: 2 initialized @(40650,0)
GPGPU-Sim uArch: cycles simulated: 41000  inst.: 6863880 (ipc=167.4) sim_rate=180628 (inst/sec) elapsed = 0:0:00:38 / Tue Apr 16 16:49:25 2019
GPGPU-Sim PTX: 6900000 instructions simulated : ctaid=(2,21,0) tid=(11,10,0)
GPGPU-Sim uArch: Shader 14 finished CTA #2 (41466,0), 7 CTAs running
GPGPU-Sim uArch: core: 14, cta: 2 initialized @(41467,0)
GPGPU-Sim PTX: 7000000 instructions simulated : ctaid=(2,24,0) tid=(4,6,0)
GPGPU-Sim uArch: cycles simulated: 42000  inst.: 7014307 (ipc=167.0) sim_rate=179854 (inst/sec) elapsed = 0:0:00:39 / Tue Apr 16 16:49:26 2019
GPGPU-Sim PTX: 7100000 instructions simulated : ctaid=(4,24,0) tid=(10,5,0)
GPGPU-Sim uArch: cycles simulated: 43000  inst.: 7162842 (ipc=166.6) sim_rate=179071 (inst/sec) elapsed = 0:0:00:40 / Tue Apr 16 16:49:27 2019
GPGPU-Sim PTX: 7200000 instructions simulated : ctaid=(0,16,0) tid=(0,11,0)
GPGPU-Sim uArch: cycles simulated: 43500  inst.: 7236788 (ipc=166.4) sim_rate=176507 (inst/sec) elapsed = 0:0:00:41 / Tue Apr 16 16:49:28 2019
GPGPU-Sim uArch: Shader 1 finished CTA #3 (43665,0), 7 CTAs running
GPGPU-Sim uArch: core:  1, cta: 3 initialized @(43666,0)
GPGPU-Sim uArch: Shader 5 finished CTA #3 (43734,0), 7 CTAs running
GPGPU-Sim uArch: core:  5, cta: 3 initialized @(43735,0)
GPGPU-Sim PTX: 7300000 instructions simulated : ctaid=(3,14,0) tid=(8,4,0)
GPGPU-Sim uArch: Shader 7 finished CTA #2 (44174,0), 7 CTAs running
GPGPU-Sim uArch: core:  7, cta: 2 initialized @(44175,0)
GPGPU-Sim PTX: 7400000 instructions simulated : ctaid=(3,11,0) tid=(1,9,0)
GPGPU-Sim uArch: Shader 4 finished CTA #3 (44736,0), 7 CTAs running
GPGPU-Sim uArch: core:  4, cta: 3 initialized @(44737,0)
GPGPU-Sim uArch: cycles simulated: 45000  inst.: 7462359 (ipc=165.8) sim_rate=177675 (inst/sec) elapsed = 0:0:00:42 / Tue Apr 16 16:49:29 2019
GPGPU-Sim PTX: 7500000 instructions simulated : ctaid=(4,12,0) tid=(7,9,0)
GPGPU-Sim uArch: cycles simulated: 45500  inst.: 7530921 (ipc=165.5) sim_rate=175137 (inst/sec) elapsed = 0:0:00:43 / Tue Apr 16 16:49:30 2019
GPGPU-Sim uArch: Shader 3 finished CTA #3 (45850,0), 7 CTAs running
GPGPU-Sim PTX: 7600000 instructions simulated : ctaid=(3,18,0) tid=(0,2,0)
GPGPU-Sim uArch: Shader 2 finished CTA #3 (45922,0), 7 CTAs running
GPGPU-Sim uArch: Shader 13 finished CTA #3 (46471,0), 7 CTAs running
GPGPU-Sim PTX: 7700000 instructions simulated : ctaid=(0,23,0) tid=(4,11,0)
GPGPU-Sim uArch: cycles simulated: 46500  inst.: 7675536 (ipc=165.1) sim_rate=174444 (inst/sec) elapsed = 0:0:00:44 / Tue Apr 16 16:49:31 2019
GPGPU-Sim uArch: Shader 6 finished CTA #3 (46516,0), 7 CTAs running
GPGPU-Sim uArch: Shader 0 finished CTA #3 (47113,0), 7 CTAs running
GPGPU-Sim PTX: 7800000 instructions simulated : ctaid=(4,21,0) tid=(3,12,0)
GPGPU-Sim uArch: Shader 12 finished CTA #3 (47419,0), 7 CTAs running
GPGPU-Sim uArch: cycles simulated: 48000  inst.: 7865190 (ipc=163.9) sim_rate=174782 (inst/sec) elapsed = 0:0:00:45 / Tue Apr 16 16:49:32 2019
GPGPU-Sim PTX: 7900000 instructions simulated : ctaid=(5,17,0) tid=(2,12,0)
GPGPU-Sim uArch: Shader 11 finished CTA #3 (48523,0), 7 CTAs running
GPGPU-Sim PTX: 8000000 instructions simulated : ctaid=(4,23,0) tid=(7,1,0)
GPGPU-Sim uArch: cycles simulated: 49500  inst.: 8069582 (ipc=163.0) sim_rate=175425 (inst/sec) elapsed = 0:0:00:46 / Tue Apr 16 16:49:33 2019
GPGPU-Sim PTX: 8100000 instructions simulated : ctaid=(3,21,0) tid=(9,11,0)
GPGPU-Sim PTX: 8200000 instructions simulated : ctaid=(1,14,0) tid=(1,4,0)
GPGPU-Sim uArch: Shader 14 finished CTA #3 (50290,0), 7 CTAs running
GPGPU-Sim uArch: Shader 9 finished CTA #3 (50714,0), 7 CTAs running
GPGPU-Sim uArch: Shader 10 finished CTA #3 (50914,0), 7 CTAs running
GPGPU-Sim PTX: 8300000 instructions simulated : ctaid=(4,12,0) tid=(11,8,0)
GPGPU-Sim uArch: cycles simulated: 51000  inst.: 8283394 (ipc=162.4) sim_rate=176242 (inst/sec) elapsed = 0:0:00:47 / Tue Apr 16 16:49:34 2019
GPGPU-Sim PTX: 8400000 instructions simulated : ctaid=(0,21,0) tid=(0,5,0)
GPGPU-Sim uArch: Shader 2 finished CTA #4 (51948,0), 6 CTAs running
GPGPU-Sim uArch: cycles simulated: 52000  inst.: 8449201 (ipc=162.5) sim_rate=176025 (inst/sec) elapsed = 0:0:00:48 / Tue Apr 16 16:49:35 2019
GPGPU-Sim PTX: 8500000 instructions simulated : ctaid=(3,22,0) tid=(1,5,0)
GPGPU-Sim PTX: 8600000 instructions simulated : ctaid=(5,25,0) tid=(6,5,0)
GPGPU-Sim uArch: Shader 8 finished CTA #3 (52779,0), 7 CTAs running
GPGPU-Sim uArch: cycles simulated: 53000  inst.: 8607376 (ipc=162.4) sim_rate=175660 (inst/sec) elapsed = 0:0:00:49 / Tue Apr 16 16:49:36 2019
GPGPU-Sim PTX: 8700000 instructions simulated : ctaid=(1,24,0) tid=(1,5,0)
GPGPU-Sim uArch: Shader 1 finished CTA #4 (53620,0), 7 CTAs running
GPGPU-Sim uArch: Shader 3 finished CTA #4 (53670,0), 6 CTAs running
GPGPU-Sim PTX: 8800000 instructions simulated : ctaid=(1,21,0) tid=(8,10,0)
GPGPU-Sim uArch: Shader 7 finished CTA #3 (54199,0), 7 CTAs running
GPGPU-Sim uArch: Shader 5 finished CTA #4 (54299,0), 7 CTAs running
GPGPU-Sim uArch: cycles simulated: 54500  inst.: 8847815 (ipc=162.3) sim_rate=176956 (inst/sec) elapsed = 0:0:00:50 / Tue Apr 16 16:49:37 2019
GPGPU-Sim PTX: 8900000 instructions simulated : ctaid=(2,25,0) tid=(8,11,0)
GPGPU-Sim uArch: Shader 2 finished CTA #5 (54934,0), 5 CTAs running
GPGPU-Sim PTX: 9000000 instructions simulated : ctaid=(3,24,0) tid=(1,0,0)
GPGPU-Sim uArch: Shader 4 finished CTA #4 (55368,0), 7 CTAs running
GPGPU-Sim PTX: 9100000 instructions simulated : ctaid=(5,15,0) tid=(9,4,0)
GPGPU-Sim uArch: Shader 6 finished CTA #4 (55986,0), 6 CTAs running
GPGPU-Sim uArch: cycles simulated: 56000  inst.: 9088404 (ipc=162.3) sim_rate=178204 (inst/sec) elapsed = 0:0:00:51 / Tue Apr 16 16:49:38 2019
GPGPU-Sim uArch: Shader 10 finished CTA #4 (56416,0), 6 CTAs running
GPGPU-Sim PTX: 9200000 instructions simulated : ctaid=(2,20,0) tid=(10,12,0)
GPGPU-Sim uArch: Shader 11 finished CTA #4 (56588,0), 6 CTAs running
GPGPU-Sim PTX: 9300000 instructions simulated : ctaid=(5,12,0) tid=(10,8,0)
GPGPU-Sim uArch: Shader 12 finished CTA #4 (57416,0), 6 CTAs running
GPGPU-Sim uArch: cycles simulated: 57500  inst.: 9338674 (ipc=162.4) sim_rate=179589 (inst/sec) elapsed = 0:0:00:52 / Tue Apr 16 16:49:39 2019
GPGPU-Sim PTX: 9400000 instructions simulated : ctaid=(1,15,0) tid=(7,7,0)
GPGPU-Sim PTX: 9500000 instructions simulated : ctaid=(5,26,0) tid=(3,10,0)
GPGPU-Sim uArch: Shader 8 finished CTA #4 (58303,0), 6 CTAs running
GPGPU-Sim uArch: Shader 9 finished CTA #4 (58316,0), 6 CTAs running
GPGPU-Sim uArch: cycles simulated: 58500  inst.: 9531676 (ipc=162.9) sim_rate=179842 (inst/sec) elapsed = 0:0:00:53 / Tue Apr 16 16:49:40 2019
GPGPU-Sim PTX: 9600000 instructions simulated : ctaid=(0,25,0) tid=(11,11,0)
GPGPU-Sim uArch: Shader 0 finished CTA #4 (58859,0), 6 CTAs running
GPGPU-Sim uArch: Shader 13 finished CTA #4 (59141,0), 6 CTAs running
GPGPU-Sim PTX: 9700000 instructions simulated : ctaid=(5,12,0) tid=(2,8,0)
GPGPU-Sim uArch: Shader 3 finished CTA #5 (59631,0), 5 CTAs running
GPGPU-Sim uArch: Shader 6 finished CTA #5 (59677,0), 5 CTAs running
GPGPU-Sim PTX: 9800000 instructions simulated : ctaid=(0,25,0) tid=(1,12,0)
GPGPU-Sim uArch: Shader 2 finished CTA #6 (59885,0), 4 CTAs running
GPGPU-Sim uArch: Shader 5 finished CTA #5 (59981,0), 6 CTAs running
GPGPU-Sim uArch: cycles simulated: 60000  inst.: 9810359 (ipc=163.5) sim_rate=181673 (inst/sec) elapsed = 0:0:00:54 / Tue Apr 16 16:49:41 2019
GPGPU-Sim PTX: 9900000 instructions simulated : ctaid=(4,26,0) tid=(1,1,0)
GPGPU-Sim uArch: Shader 14 finished CTA #4 (60360,0), 6 CTAs running
GPGPU-Sim PTX: 10000000 instructions simulated : ctaid=(5,22,0) tid=(1,3,0)
GPGPU-Sim uArch: Shader 7 finished CTA #4 (60883,0), 6 CTAs running
GPGPU-Sim uArch: cycles simulated: 61000  inst.: 10014987 (ipc=164.2) sim_rate=182090 (inst/sec) elapsed = 0:0:00:55 / Tue Apr 16 16:49:42 2019
GPGPU-Sim uArch: Shader 1 finished CTA #5 (61022,0), 6 CTAs running
GPGPU-Sim PTX: 10100000 instructions simulated : ctaid=(5,23,0) tid=(5,9,0)
GPGPU-Sim uArch: Shader 11 finished CTA #5 (61427,0), 5 CTAs running
GPGPU-Sim PTX: 10200000 instructions simulated : ctaid=(0,21,0) tid=(10,4,0)
GPGPU-Sim uArch: cycles simulated: 62000  inst.: 10229320 (ipc=165.0) sim_rate=182666 (inst/sec) elapsed = 0:0:00:56 / Tue Apr 16 16:49:43 2019
GPGPU-Sim PTX: 10300000 instructions simulated : ctaid=(4,16,0) tid=(9,8,0)
GPGPU-Sim uArch: Shader 12 finished CTA #5 (62202,0), 5 CTAs running
GPGPU-Sim uArch: Shader 9 finished CTA #5 (62211,0), 5 CTAs running
GPGPU-Sim uArch: Shader 14 finished CTA #5 (62399,0), 5 CTAs running
GPGPU-Sim uArch: Shader 3 finished CTA #6 (62465,0), 4 CTAs running
GPGPU-Sim uArch: Shader 5 finished CTA #6 (62494,0), 5 CTAs running
GPGPU-Sim uArch: Shader 10 finished CTA #5 (62535,0), 5 CTAs running
GPGPU-Sim PTX: 10400000 instructions simulated : ctaid=(0,24,0) tid=(10,7,0)
GPGPU-Sim uArch: Shader 4 finished CTA #5 (62561,0), 6 CTAs running
GPGPU-Sim uArch: Shader 2 finished CTA #7 (62576,0), 3 CTAs running
GPGPU-Sim uArch: Shader 0 finished CTA #5 (62763,0), 5 CTAs running
GPGPU-Sim uArch: Shader 8 finished CTA #5 (62843,0), 5 CTAs running
GPGPU-Sim PTX: 10500000 instructions simulated : ctaid=(3,16,0) tid=(12,8,0)
GPGPU-Sim PTX: 10600000 instructions simulated : ctaid=(2,16,0) tid=(4,8,0)
GPGPU-Sim uArch: cycles simulated: 63500  inst.: 10581131 (ipc=166.6) sim_rate=185633 (inst/sec) elapsed = 0:0:00:57 / Tue Apr 16 16:49:44 2019
GPGPU-Sim uArch: Shader 6 finished CTA #6 (63516,0), 4 CTAs running
GPGPU-Sim uArch: Shader 2 finished CTA #0 (63577,0), 2 CTAs running
GPGPU-Sim uArch: Shader 3 finished CTA #7 (63673,0), 3 CTAs running
GPGPU-Sim uArch: Shader 13 finished CTA #5 (63720,0), 5 CTAs running
GPGPU-Sim uArch: Shader 7 finished CTA #5 (63730,0), 5 CTAs running
GPGPU-Sim PTX: 10700000 instructions simulated : ctaid=(5,16,0) tid=(10,12,0)
GPGPU-Sim uArch: Shader 8 finished CTA #6 (63981,0), 4 CTAs running
GPGPU-Sim uArch: Shader 2 finished CTA #1 (64113,0), 1 CTAs running
GPGPU-Sim PTX: 10800000 instructions simulated : ctaid=(1,24,0) tid=(5,8,0)
GPGPU-Sim uArch: Shader 5 finished CTA #7 (64366,0), 4 CTAs running
GPGPU-Sim uArch: Shader 1 finished CTA #6 (64480,0), 5 CTAs running
GPGPU-Sim uArch: cycles simulated: 64500  inst.: 10820227 (ipc=167.8) sim_rate=186555 (inst/sec) elapsed = 0:0:00:58 / Tue Apr 16 16:49:45 2019
GPGPU-Sim uArch: Shader 0 finished CTA #6 (64604,0), 4 CTAs running
GPGPU-Sim uArch: Shader 9 finished CTA #6 (64655,0), 4 CTAs running
GPGPU-Sim uArch: Shader 12 finished CTA #6 (64659,0), 4 CTAs running
GPGPU-Sim uArch: Shader 11 finished CTA #6 (64664,0), 4 CTAs running
GPGPU-Sim PTX: 10900000 instructions simulated : ctaid=(5,20,0) tid=(11,2,0)
GPGPU-Sim uArch: Shader 10 finished CTA #6 (64733,0), 4 CTAs running
GPGPU-Sim uArch: Shader 2 finished CTA #2 (64763,0), 0 CTAs running
GPGPU-Sim uArch: Shader 2 empty (release kernel 1 '_Z17executeFirstLayerPfS_S_').
GPGPU-Sim uArch: Shader 14 finished CTA #6 (64874,0), 4 CTAs running
GPGPU-Sim PTX: 11000000 instructions simulated : ctaid=(0,26,0) tid=(9,8,0)
GPGPU-Sim uArch: Shader 6 finished CTA #7 (65185,0), 3 CTAs running
GPGPU-Sim uArch: Shader 0 finished CTA #7 (65219,0), 3 CTAs running
GPGPU-Sim uArch: Shader 3 finished CTA #0 (65252,0), 2 CTAs running
GPGPU-Sim uArch: Shader 7 finished CTA #6 (65508,0), 4 CTAs running
GPGPU-Sim PTX: 11100000 instructions simulated : ctaid=(2,21,0) tid=(3,9,0)
GPGPU-Sim uArch: Shader 14 finished CTA #7 (65606,0), 3 CTAs running
GPGPU-Sim uArch: Shader 12 finished CTA #7 (65626,0), 3 CTAs running
GPGPU-Sim uArch: Shader 11 finished CTA #7 (65631,0), 3 CTAs running
GPGPU-Sim uArch: Shader 13 finished CTA #6 (65756,0), 4 CTAs running
GPGPU-Sim uArch: Shader 8 finished CTA #7 (65779,0), 3 CTAs running
GPGPU-Sim uArch: Shader 3 finished CTA #1 (65804,0), 1 CTAs running
GPGPU-Sim uArch: Shader 9 finished CTA #7 (65830,0), 3 CTAs running
GPGPU-Sim PTX: 11200000 instructions simulated : ctaid=(3,24,0) tid=(6,3,0)
GPGPU-Sim uArch: Shader 8 finished CTA #0 (66199,0), 2 CTAs running
GPGPU-Sim uArch: Shader 5 finished CTA #0 (66318,0), 3 CTAs running
GPGPU-Sim uArch: Shader 13 finished CTA #7 (66368,0), 3 CTAs running
GPGPU-Sim uArch: Shader 4 finished CTA #6 (66409,0), 5 CTAs running
GPGPU-Sim uArch: Shader 1 finished CTA #7 (66497,0), 4 CTAs running
GPGPU-Sim uArch: cycles simulated: 66500  inst.: 11261529 (ipc=169.3) sim_rate=190873 (inst/sec) elapsed = 0:0:00:59 / Tue Apr 16 16:49:46 2019
GPGPU-Sim PTX: 11300000 instructions simulated : ctaid=(3,21,0) tid=(7,4,0)
GPGPU-Sim uArch: Shader 10 finished CTA #7 (66765,0), 3 CTAs running
GPGPU-Sim uArch: Shader 7 finished CTA #7 (66814,0), 3 CTAs running
GPGPU-Sim uArch: Shader 3 finished CTA #2 (66824,0), 0 CTAs running
GPGPU-Sim uArch: Shader 3 empty (release kernel 1 '_Z17executeFirstLayerPfS_S_').
GPGPU-Sim uArch: Shader 6 finished CTA #0 (66835,0), 2 CTAs running
GPGPU-Sim PTX: 11400000 instructions simulated : ctaid=(0,25,0) tid=(1,3,0)
GPGPU-Sim uArch: Shader 0 finished CTA #0 (67009,0), 2 CTAs running
GPGPU-Sim uArch: Shader 4 finished CTA #7 (67068,0), 4 CTAs running
GPGPU-Sim uArch: Shader 8 finished CTA #1 (67125,0), 1 CTAs running
GPGPU-Sim uArch: Shader 14 finished CTA #0 (67149,0), 2 CTAs running
GPGPU-Sim uArch: Shader 11 finished CTA #0 (67171,0), 2 CTAs running
GPGPU-Sim uArch: Shader 13 finished CTA #0 (67440,0), 2 CTAs running
GPGPU-Sim uArch: Shader 10 finished CTA #0 (67445,0), 2 CTAs running
GPGPU-Sim PTX: 11500000 instructions simulated : ctaid=(3,24,0) tid=(9,2,0)
GPGPU-Sim uArch: Shader 6 finished CTA #1 (67621,0), 1 CTAs running
GPGPU-Sim uArch: Shader 11 finished CTA #1 (67675,0), 1 CTAs running
GPGPU-Sim uArch: Shader 9 finished CTA #0 (67752,0), 2 CTAs running
GPGPU-Sim uArch: Shader 5 finished CTA #1 (67796,0), 2 CTAs running
GPGPU-Sim uArch: Shader 0 finished CTA #1 (67809,0), 1 CTAs running
GPGPU-Sim uArch: Shader 12 finished CTA #0 (68063,0), 2 CTAs running
GPGPU-Sim uArch: Shader 1 finished CTA #0 (68083,0), 3 CTAs running
GPGPU-Sim uArch: Shader 10 finished CTA #1 (68095,0), 1 CTAs running
GPGPU-Sim uArch: Shader 14 finished CTA #1 (68105,0), 1 CTAs running
GPGPU-Sim uArch: Shader 5 finished CTA #2 (68115,0), 1 CTAs running
GPGPU-Sim uArch: Shader 6 finished CTA #2 (68148,0), 0 CTAs running
GPGPU-Sim uArch: Shader 6 empty (release kernel 1 '_Z17executeFirstLayerPfS_S_').
GPGPU-Sim uArch: Shader 8 finished CTA #2 (68150,0), 0 CTAs running
GPGPU-Sim uArch: Shader 8 empty (release kernel 1 '_Z17executeFirstLayerPfS_S_').
GPGPU-Sim PTX: 11600000 instructions simulated : ctaid=(2,26,0) tid=(10,7,0)
GPGPU-Sim uArch: Shader 7 finished CTA #0 (68176,0), 2 CTAs running
GPGPU-Sim uArch: Shader 9 finished CTA #1 (68346,0), 1 CTAs running
GPGPU-Sim uArch: Shader 13 finished CTA #1 (68416,0), 1 CTAs running
GPGPU-Sim uArch: Shader 12 finished CTA #1 (68458,0), 1 CTAs running
GPGPU-Sim uArch: cycles simulated: 68500  inst.: 11596978 (ipc=169.3) sim_rate=193282 (inst/sec) elapsed = 0:0:01:00 / Tue Apr 16 16:49:47 2019
GPGPU-Sim uArch: Shader 14 finished CTA #2 (68630,0), 0 CTAs running
GPGPU-Sim uArch: Shader 14 empty (release kernel 1 '_Z17executeFirstLayerPfS_S_').
GPGPU-Sim uArch: Shader 0 finished CTA #2 (68662,0), 0 CTAs running
GPGPU-Sim uArch: Shader 0 empty (release kernel 1 '_Z17executeFirstLayerPfS_S_').
GPGPU-Sim uArch: Shader 9 finished CTA #2 (68788,0), 0 CTAs running
GPGPU-Sim uArch: Shader 9 empty (release kernel 1 '_Z17executeFirstLayerPfS_S_').
GPGPU-Sim uArch: Shader 11 finished CTA #2 (68824,0), 0 CTAs running
GPGPU-Sim uArch: Shader 11 empty (release kernel 1 '_Z17executeFirstLayerPfS_S_').
GPGPU-Sim uArch: Shader 1 finished CTA #1 (69024,0), 2 CTAs running
GPGPU-Sim uArch: Shader 5 finished CTA #3 (69098,0), 0 CTAs running
GPGPU-Sim uArch: Shader 5 empty (release kernel 1 '_Z17executeFirstLayerPfS_S_').
GPGPU-Sim uArch: Shader 7 finished CTA #1 (69113,0), 1 CTAs running
GPGPU-Sim uArch: Shader 4 finished CTA #0 (69172,0), 3 CTAs running
GPGPU-Sim uArch: Shader 10 finished CTA #2 (69407,0), 0 CTAs running
GPGPU-Sim uArch: Shader 10 empty (release kernel 1 '_Z17executeFirstLayerPfS_S_').
GPGPU-Sim uArch: Shader 12 finished CTA #2 (69431,0), 0 CTAs running
GPGPU-Sim uArch: Shader 12 empty (release kernel 1 '_Z17executeFirstLayerPfS_S_').
GPGPU-Sim uArch: Shader 1 finished CTA #2 (69464,0), 1 CTAs running
GPGPU-Sim uArch: Shader 7 finished CTA #2 (69667,0), 0 CTAs running
GPGPU-Sim uArch: Shader 7 empty (release kernel 1 '_Z17executeFirstLayerPfS_S_').
GPGPU-Sim PTX: 11700000 instructions simulated : ctaid=(1,25,0) tid=(10,12,0)
GPGPU-Sim uArch: Shader 13 finished CTA #2 (69695,0), 0 CTAs running
GPGPU-Sim uArch: Shader 13 empty (release kernel 1 '_Z17executeFirstLayerPfS_S_').
GPGPU-Sim uArch: Shader 4 finished CTA #1 (69823,0), 2 CTAs running
GPGPU-Sim uArch: Shader 1 finished CTA #3 (70607,0), 0 CTAs running
GPGPU-Sim uArch: Shader 1 empty (release kernel 1 '_Z17executeFirstLayerPfS_S_').
GPGPU-Sim uArch: Shader 4 finished CTA #2 (71078,0), 1 CTAs running
GPGPU-Sim uArch: Shader 4 finished CTA #3 (72141,0), 0 CTAs running
GPGPU-Sim uArch: Shader 4 empty (release kernel 1 '_Z17executeFirstLayerPfS_S_').
GPGPU-Sim uArch: GPU detected kernel '_Z17executeFirstLayerPfS_S_' finished on shader 4.
kernel_name = _Z17executeFirstLayerPfS_S_ 
kernel_launch_uid = 1 
gpu_sim_cycle = 72142
gpu_sim_insn = 11694074
gpu_ipc =     162.0980
gpu_tot_sim_cycle = 72142
gpu_tot_sim_insn = 11694074
gpu_tot_ipc =     162.0980
gpu_tot_issued_cta = 0
gpu_stall_dramfull = 45591
gpu_stall_icnt2sh    = 421564
gpu_total_sim_rate=194901

========= Core cache stats =========
L1I_cache:
	L1I_total_cache_accesses = 244965
	L1I_total_cache_misses = 1085
	L1I_total_cache_miss_rate = 0.0044
	L1I_total_cache_pending_hits = 0
	L1I_total_cache_reservation_fails = 4140
L1D_cache:
	L1D_cache_core[0]: Access = 9373, Miss = 4608, Miss_rate = 0.492, Pending_hits = 601, Reservation_fails = 52398
	L1D_cache_core[1]: Access = 10250, Miss = 5086, Miss_rate = 0.496, Pending_hits = 483, Reservation_fails = 53165
	L1D_cache_core[2]: Access = 9381, Miss = 4507, Miss_rate = 0.480, Pending_hits = 419, Reservation_fails = 48708
	L1D_cache_core[3]: Access = 9391, Miss = 4516, Miss_rate = 0.481, Pending_hits = 544, Reservation_fails = 50574
	L1D_cache_core[4]: Access = 10253, Miss = 5042, Miss_rate = 0.492, Pending_hits = 539, Reservation_fails = 54503
	L1D_cache_core[5]: Access = 10231, Miss = 5060, Miss_rate = 0.495, Pending_hits = 465, Reservation_fails = 51242
	L1D_cache_core[6]: Access = 9377, Miss = 4560, Miss_rate = 0.486, Pending_hits = 516, Reservation_fails = 52155
	L1D_cache_core[7]: Access = 9374, Miss = 4639, Miss_rate = 0.495, Pending_hits = 569, Reservation_fails = 52974
	L1D_cache_core[8]: Access = 9352, Miss = 4635, Miss_rate = 0.496, Pending_hits = 669, Reservation_fails = 51386
	L1D_cache_core[9]: Access = 9378, Miss = 4711, Miss_rate = 0.502, Pending_hits = 640, Reservation_fails = 52344
	L1D_cache_core[10]: Access = 9340, Miss = 4617, Miss_rate = 0.494, Pending_hits = 669, Reservation_fails = 52651
	L1D_cache_core[11]: Access = 9339, Miss = 4500, Miss_rate = 0.482, Pending_hits = 662, Reservation_fails = 52197
	L1D_cache_core[12]: Access = 9361, Miss = 4546, Miss_rate = 0.486, Pending_hits = 619, Reservation_fails = 52639
	L1D_cache_core[13]: Access = 9381, Miss = 4533, Miss_rate = 0.483, Pending_hits = 608, Reservation_fails = 52737
	L1D_cache_core[14]: Access = 9421, Miss = 4741, Miss_rate = 0.503, Pending_hits = 614, Reservation_fails = 52398
	L1D_total_cache_accesses = 143202
	L1D_total_cache_misses = 70301
	L1D_total_cache_miss_rate = 0.4909
	L1D_total_cache_pending_hits = 8617
	L1D_total_cache_reservation_fails = 782071
	L1D_cache_data_port_util = 0.062
	L1D_cache_fill_port_util = 0.066
L1C_cache:
	L1C_total_cache_accesses = 28224
	L1C_total_cache_misses = 977
	L1C_total_cache_miss_rate = 0.0346
	L1C_total_cache_pending_hits = 0
	L1C_total_cache_reservation_fails = 5136
L1T_cache:
	L1T_total_cache_accesses = 0
	L1T_total_cache_misses = 0
	L1T_total_cache_pending_hits = 0
	L1T_total_cache_reservation_fails = 0

Total_core_cache_stats:
	Total_core_cache_stats_breakdown[GLOBAL_ACC_R][HIT] = 64284
	Total_core_cache_stats_breakdown[GLOBAL_ACC_R][HIT_RESERVED] = 8617
	Total_core_cache_stats_breakdown[GLOBAL_ACC_R][MISS] = 68441
	Total_core_cache_stats_breakdown[GLOBAL_ACC_R][RESERVATION_FAIL] = 770299
	Total_core_cache_stats_breakdown[CONST_ACC_R][HIT] = 27247
	Total_core_cache_stats_breakdown[CONST_ACC_R][MISS] = 977
	Total_core_cache_stats_breakdown[CONST_ACC_R][RESERVATION_FAIL] = 5136
	Total_core_cache_stats_breakdown[GLOBAL_ACC_W][MISS] = 1860
	Total_core_cache_stats_breakdown[GLOBAL_ACC_W][RESERVATION_FAIL] = 11772
	Total_core_cache_stats_breakdown[INST_ACC_R][HIT] = 243880
	Total_core_cache_stats_breakdown[INST_ACC_R][MISS] = 1085
	Total_core_cache_stats_breakdown[INST_ACC_R][RESERVATION_FAIL] = 4140
Shader 0 warp_id issue ditsribution:
warp_id:
0, 1, 2, 3, 4, 5, 6, 7, 8, 9, 10, 11, 12, 13, 14, 15, 16, 17, 18, 19, 20, 21, 22, 23, 24, 25, 26, 27, 28, 29, 30, 31, 32, 33, 34, 35, 36, 37, 38, 39, 40, 41, 42, 43, 44, 45, 46, 47, 
distro:
874, 874, 874, 874, 874, 816, 874, 874, 874, 874, 874, 831, 874, 874, 874, 845, 845, 874, 408, 437, 437, 437, 437, 437, 437, 437, 437, 437, 437, 437, 437, 437, 437, 437, 437, 408, 437, 437, 437, 437, 437, 437, 437, 437, 437, 437, 437, 408, 
gpgpu_n_tot_thrd_icount = 13976224
gpgpu_n_tot_w_icount = 436757
gpgpu_n_stall_shd_mem = 877993
gpgpu_n_mem_read_local = 0
gpgpu_n_mem_write_local = 0
gpgpu_n_mem_read_global = 68441
gpgpu_n_mem_write_global = 1860
gpgpu_n_mem_texture = 0
gpgpu_n_mem_const = 45
gpgpu_n_load_insn  = 1447992
gpgpu_n_store_insn = 28392
gpgpu_n_shmem_insn = 0
gpgpu_n_tex_insn = 0
gpgpu_n_const_mem_insn = 709800
gpgpu_n_param_mem_insn = 85176
gpgpu_n_shmem_bkconflict = 0
gpgpu_n_cache_bkconflict = 0
gpgpu_n_intrawarp_mshr_merge = 0
gpgpu_n_cmem_portconflict = 5136
gpgpu_stall_shd_mem[c_mem][bk_conf] = 5136
gpgpu_stall_shd_mem[c_mem][mshr_rc] = 0
gpgpu_stall_shd_mem[c_mem][icnt_rc] = 0
gpgpu_stall_shd_mem[c_mem][data_port_stall] = 0
gpgpu_stall_shd_mem[t_mem][mshr_rc] = 0
gpgpu_stall_shd_mem[t_mem][icnt_rc] = 0
gpgpu_stall_shd_mem[t_mem][data_port_stall] = 0
gpgpu_stall_shd_mem[s_mem][bk_conf] = 0
gpgpu_stall_shd_mem[gl_mem][bk_conf] = 0
gpgpu_stall_shd_mem[gl_mem][coal_stall] = 872857
gpgpu_stall_shd_mem[gl_mem][data_port_stall] = 0
gpgpu_stall_shd_mem[g_mem_ld][mshr_rc] = 0
gpgpu_stall_shd_mem[g_mem_ld][icnt_rc] = 0
gpgpu_stall_shd_mem[g_mem_ld][wb_icnt_rc] = 0
gpgpu_stall_shd_mem[g_mem_ld][wb_rsrv_fail] = 0
gpgpu_stall_shd_mem[g_mem_st][mshr_rc] = 0
gpgpu_stall_shd_mem[g_mem_st][icnt_rc] = 0
gpgpu_stall_shd_mem[g_mem_st][wb_icnt_rc] = 0
gpgpu_stall_shd_mem[g_mem_st][wb_rsrv_fail] = 0
gpgpu_stall_shd_mem[l_mem_ld][mshr_rc] = 0
gpgpu_stall_shd_mem[l_mem_ld][icnt_rc] = 0
gpgpu_stall_shd_mem[l_mem_ld][wb_icnt_rc] = 0
gpgpu_stall_shd_mem[l_mem_ld][wb_rsrv_fail] = 0
gpgpu_stall_shd_mem[l_mem_st][mshr_rc] = 0
gpgpu_stall_shd_mem[l_mem_st][icnt_rc] = 0
gpgpu_stall_shd_mem[l_mem_ld][wb_icnt_rc] = 0
gpgpu_stall_shd_mem[l_mem_ld][wb_rsrv_fail] = 0
gpu_reg_bank_conflict_stalls = 0
Warp Occupancy Distribution:
Stall:1447883	W0_Idle:104038	W0_Scoreboard:77022	W1:1617	W2:1706	W3:1602	W4:1573	W5:1910	W6:2148	W7:2029	W8:1839	W9:69677	W10:1230	W11:880	W12:982	W13:1064	W14:1298	W15:978	W16:903	W17:828	W18:938	W19:914	W20:652	W21:625	W22:705	W23:1064	W24:1036	W25:1062	W26:1332	W27:1100	W28:1093	W29:981	W30:664	W31:754	W32:331573
traffic_breakdown_coretomem[CONST_ACC_R] = 360 {8:45,}
traffic_breakdown_coretomem[GLOBAL_ACC_R] = 547528 {8:68441,}
traffic_breakdown_coretomem[GLOBAL_ACC_W] = 172800 {40:499,72:504,136:857,}
traffic_breakdown_coretomem[INST_ACC_R] = 840 {8:105,}
traffic_breakdown_memtocore[CONST_ACC_R] = 3240 {72:45,}
traffic_breakdown_memtocore[GLOBAL_ACC_R] = 9307976 {136:68441,}
traffic_breakdown_memtocore[GLOBAL_ACC_W] = 14880 {8:1860,}
traffic_breakdown_memtocore[INST_ACC_R] = 14280 {136:105,}
maxmrqlatency = 52 
maxdqlatency = 0 
maxmflatency = 680 
averagemflatency = 221 
max_icnt2mem_latency = 336 
max_icnt2sh_latency = 72141 
mrq_lat_table:1547 	480 	107 	210 	175 	11 	0 	0 	0 	0 	0 	0 	0 	0 	0 	0 	0 	0 	0 	0 	0 	0 	0 	0 	0 	0 	0 	0 	0 	0 	0 	0 	
dq_lat_table:0 	0 	0 	0 	0 	0 	0 	0 	0 	0 	0 	0 	0 	0 	0 	0 	0 	0 	0 	0 	0 	0 	0 	0 	0 	0 	0 	0 	0 	0 	0 	0 	
mf_lat_table:0 	0 	0 	0 	0 	0 	0 	51711 	18444 	191 	0 	0 	0 	0 	0 	0 	0 	0 	0 	0 	0 	0 	0 	0 	0 	0 	0 	0 	0 	0 	0 	0 	
icnt2mem_lat_table:0 	0 	0 	54859 	11221 	1726 	1714 	886 	45 	0 	0 	0 	0 	0 	0 	0 	0 	0 	0 	0 	0 	0 	0 	0 	
icnt2sh_lat_table:0 	0 	0 	6700 	35919 	24048 	1817 	2 	0 	0 	0 	0 	0 	0 	576 	1020 	264 	0 	0 	0 	0 	0 	0 	0 	
mf_lat_pw_table:0 	0 	0 	0 	0 	0 	0 	135 	8 	0 	0 	0 	0 	0 	0 	0 	0 	0 	0 	0 	0 	0 	0 	0 	0 	0 	0 	0 	0 	0 	0 	0 	
maximum concurrent accesses to same row:
dram[0]:         1         0         0         0         0         0         0         0         0         0         0         0         0         0         0         0 
dram[1]:         1         0         0         0         0         0         0         0         0         0         0         0         0         0         0         0 
dram[2]:         0         0         0         0         0         0         0         0         0         0         0         0         0         0         0         0 
dram[3]:         0         0         0         0         0         0         0         0         0         0         0         0         0         0         0         0 
dram[4]:         0         0         0         0         0         0         0         0         0         0         0         0         0         0         0         0 
dram[5]:         0         0         0         0         0         0         0         0         0         0         0         0         0         0         0         0 
maximum service time to same row:
dram[0]:       350         0         0         0      1532      1563      2000      2032      2847       841     17816     20844     39369     39353         0         0 
dram[1]:      2090         0         0         0      1551      1569      2088      1868      2901     16727     17907     19621     41144     41260         0         0 
dram[2]:     14944         0         0         0      1549      1543      2010      1985      2112     16772     20419     19462     41785     42694         0         0 
dram[3]:     16322         0         0         0      1546      1537      1799      1978      2129     16819     19515     21272     40710     42538         0         0 
dram[4]:         0         0         0         0      1541      1538      2010      1932       847     17441     21174     20349     40713     42302         0         0 
dram[5]:         0         0         0         0      1569      1534      2028      2046       851     17457     20969     20172     39375     42359         0         0 
average row accesses per activate:
dram[0]:  1.000000      -nan      -nan      -nan 10.000000 10.000000 32.000000 32.000000 44.000000 43.000000 64.000000 64.000000 60.000000 60.000000      -nan      -nan 
dram[1]:  3.000000      -nan      -nan      -nan 10.000000 10.000000 32.000000 32.000000 44.000000 46.000000 64.000000 64.000000 60.000000 56.000000      -nan      -nan 
dram[2]:  2.000000      -nan      -nan      -nan 10.000000 12.000000 32.000000 32.000000 45.000000 46.000000 64.000000 65.000000 60.000000 56.000000      -nan      -nan 
dram[3]:  1.000000      -nan      -nan      -nan 10.000000 12.000000 32.000000 32.000000 44.000000 46.000000 64.000000 65.000000 60.000000 56.000000      -nan      -nan 
dram[4]:      -nan      -nan      -nan      -nan 10.000000 12.000000 32.000000 32.000000 44.000000 46.000000 64.000000 64.000000 60.000000 56.000000      -nan      -nan 
dram[5]:      -nan      -nan      -nan      -nan 10.000000 12.000000 32.000000 32.000000 45.000000 46.000000 64.000000 64.000000 60.000000 56.000000      -nan      -nan 
average row locality = 2530/66 = 38.333332
number of total memory accesses made:
dram[0]:         0         0         0         0         0         0         0         0         0         0         0         0         0         0         0         0 
dram[1]:         0         0         0         0         0         0         0         0         0         0         0         0         0         0         0         0 
dram[2]:         0         0         0         0         0         0         0         0         0         0         0         0         0         0         0         0 
dram[3]:         0         0         0         0         0         0         0         0         0         0         0         0         0         0         0         0 
dram[4]:         0         0         0         0         0         0         0         0         0         0         0         0         0         0         0         0 
dram[5]:         0         0         0         0         0         0         0         0         0         0         0         0         0         0         0         0 
total accesses: 0
min_bank_accesses = 0!
min_chip_accesses = 0!
number of total read accesses:
dram[0]:         3         0         0         0        10        10        32        32        32        31        32        32        30        30         0         0 
dram[1]:         3         0         0         0        10        10        32        32        32        32        32        32        30        28         0         0 
dram[2]:         2         0         0         0        10        12        32        32        32        32        32        32        30        28         0         0 
dram[3]:         1         0         0         0        10        12        32        32        32        32        32        32        30        28         0         0 
dram[4]:         0         0         0         0        10        12        32        32        32        32        32        32        30        28         0         0 
dram[5]:         0         0         0         0        10        12        32        32        32        32        32        32        30        28         0         0 
total reads: 1638
min_bank_accesses = 0!
chip skew: 274/272 = 1.01
number of total write accesses:
dram[0]:         0         0         0         0         0         0         0         0        12        12        32        32        30        30         0         0 
dram[1]:         0         0         0         0         0         0         0         0        12        14        32        32        30        28         0         0 
dram[2]:         0         0         0         0         0         0         0         0        13        14        32        33        30        28         0         0 
dram[3]:         0         0         0         0         0         0         0         0        12        14        32        33        30        28         0         0 
dram[4]:         0         0         0         0         0         0         0         0        12        14        32        32        30        28         0         0 
dram[5]:         0         0         0         0         0         0         0         0        13        14        32        32        30        28         0         0 
total reads: 892
min_bank_accesses = 0!
chip skew: 150/148 = 1.01
average mf latency per bank:
dram[0]:       1300    none      none      none       18259     15555     21253     21434      8343      8731       277       262       227       223    none      none  
[...]
traffic_breakdown_coretomem[CONST_ACC_R] = 600 {8:75,}
traffic_breakdown_coretomem[GLOBAL_ACC_R] = 5654624 {8:706828,}
traffic_breakdown_coretomem[GLOBAL_ACC_W] = 517200 {40:4279,72:1204,136:1907,}
traffic_breakdown_coretomem[INST_ACC_R] = 3000 {8:375,}
traffic_breakdown_memtocore[CONST_ACC_R] = 5400 {72:75,}
traffic_breakdown_memtocore[GLOBAL_ACC_R] = 96128608 {136:706828,}
traffic_breakdown_memtocore[GLOBAL_ACC_W] = 59120 {8:7390,}
traffic_breakdown_memtocore[INST_ACC_R] = 51000 {136:375,}
maxmrqlatency = 90 
maxdqlatency = 0 
maxmflatency = 680 
averagemflatency = 158 
max_icnt2mem_latency = 336 
max_icnt2sh_latency = 2908784 
mrq_lat_table:7281 	895 	210 	503 	480 	45 	3 	0 	0 	0 	0 	0 	0 	0 	0 	0 	0 	0 	0 	0 	0 	0 	0 	0 	0 	0 	0 	0 	0 	0 	0 	0 	
dq_lat_table:0 	0 	0 	0 	0 	0 	0 	0 	0 	0 	0 	0 	0 	0 	0 	0 	0 	0 	0 	0 	0 	0 	0 	0 	0 	0 	0 	0 	0 	0 	0 	0 	
mf_lat_table:0 	0 	0 	0 	0 	0 	0 	689965 	24137 	191 	0 	0 	0 	0 	0 	0 	0 	0 	0 	0 	0 	0 	0 	0 	0 	0 	0 	0 	0 	0 	0 	0 	
icnt2mem_lat_table:0 	0 	0 	692407 	17695 	1883 	1734 	904 	45 	0 	0 	0 	0 	0 	0 	0 	0 	0 	0 	0 	0 	0 	0 	0 	
icnt2sh_lat_table:0 	0 	0 	459381 	174076 	70151 	3293 	2 	0 	0 	0 	0 	0 	0 	576 	1020 	636 	1044 	1154 	607 	1171 	1182 	0 	0 	
mf_lat_pw_table:0 	0 	0 	0 	0 	0 	0 	5793 	12 	0 	0 	0 	0 	0 	0 	0 	0 	0 	0 	0 	0 	0 	0 	0 	0 	0 	0 	0 	0 	0 	0 	0 	
maximum concurrent accesses to same row:
dram[0]:        68        67        69        68        29        25        32        32        44        43        64        64        62        62        46        46 
dram[1]:        69        67        69        69        29        27        32        32        44        46        64        64        62        60        46        46 
dram[2]:        69        69        65        70        30        27        32        32        45        46        64        65        62        60        46        47 
dram[3]:        67        64        69        71        30        25        32        32        44        46        64        65        62        60        47        48 
dram[4]:        68        68        66        71        25        27        32        32        44        46        64        64        62        60        46        50 
dram[5]:        67        65        67        72        27        25        32        32        45        46        64        64        62        60        46        48 
maximum service time to same row:
dram[0]:     46362     32238    168899    166772    280175    283984      9841     14188    663706    669497     17816     20844     39369     39353       282       288 
dram[1]:     47338    278999    155738    167213    278648    284091      9697     11019    653512    674324     17907     19621     41144    360709       288       287 
dram[2]:     44690    276944    155734    167207    279707    287754      8209     10588    665481    666041     20419     19462     41785    366016      1478       405 
dram[3]:     37302     83736    161375    166769    278673    281584      8953      9415    669609    663191     19515     21272     40710    369548       287       288 
dram[4]:     51388     65797    166229    171226    278691    281578     14743     10489    663758    657780     21174     20349     40713     42302       285       285 
dram[5]:     29599     61988    165650    177147    280493    283929     14961      9416    659090    655572     20969     20172     39375     42359      1143       304 
average row accesses per activate:
dram[0]: 17.333334 33.666668 50.500000 50.000000  3.869565  2.351351  2.133333  2.594594  2.562500  3.071429 48.000000 48.000000 31.666666 47.000000 39.000000 39.000000 
dram[1]: 26.250000 13.125000 50.500000 50.500000  3.869565  2.666667  2.285714  3.096774  2.711111  2.714286 48.000000 48.000000 47.000000 31.333334 39.000000 39.000000 
dram[2]: 34.333332 17.666666 48.500000 51.000000  3.869565  3.137931  2.341463  2.742857  3.000000  3.153846 48.000000 48.500000 47.000000 31.333334 39.000000 39.500000 
dram[3]: 33.666668 17.000000 50.500000 51.500000  3.913043  3.178571  2.594594  2.909091  3.292683  2.952381 48.000000 48.500000 47.000000 31.333334 39.500000 40.000000 
dram[4]: 34.000000 34.000000 49.000000 51.500000  2.774194  2.903226  2.742857  2.232558  2.955555  2.583333 48.000000 48.000000 47.000000 31.333334 39.000000 41.000000 
dram[5]: 33.666668 33.000000 49.500000 52.000000  2.666667  2.838710  2.909091  2.133333  3.068182  2.755556 48.000000 48.000000 47.000000 31.333334 39.000000 40.000000 
average row locality = 9417/1485 = 6.341414
number of total memory accesses made:
dram[0]:         0         0         0         0         0         0         0         0         0         0         0         0         0         0         0         0 
dram[1]:         0         0         0         0         0         0         0         0         0         0         0         0         0         0         0         0 
dram[2]:         0         0         0         0         0         0         0         0         0         0         0         0         0         0         0         0 
dram[3]:         0         0         0         0         0         0         0         0         0         0         0         0         0         0         0         0 
dram[4]:         0         0         0         0         0         0         0         0         0         0         0         0         0         0         0         0 
dram[5]:         0         0         0         0         0         0         0         0         0         0         0         0         0         0         0         0 
total accesses: 0
min_bank_accesses = 0!
min_chip_accesses = 0!
number of total read accesses:
dram[0]:        68        66        64        64        74        74        96        96        94        93        64        64        64        64        64        64 
dram[1]:        68        68        64        64        74        74        96        96        94        93        64        64        64        64        64        64 
dram[2]:        66        68        64        64        74        76        96        96        94        92        64        64        64        64        64        64 
dram[3]:        66        68        64        64        74        76        96        96        94        92        64        64        64        64        64        64 
dram[4]:        66        66        64        64        74        76        96        96        94        92        64        64        64        64        64        64 
dram[5]:        66        66        64        64        74        76        96        96        94        92        64        64        64        64        64        64 
total reads: 7040
bank skew: 96/64 = 1.50
chip skew: 1175/1172 = 1.00
number of total write accesses:
dram[0]:        36        35        37        36        15        13         0         0        29        36        32        32        31        30        14        14 
dram[1]:        37        37        37        37        15        14         0         0        28        40        32        32        30        30        14        14 
dram[2]:        37        38        33        38        15        15         0         0        32        31        32        33        30        30        14        15 
dram[3]:        35        34        37        39        16        13         0         0        41        32        32        33        30        30        15        16 
dram[4]:        36        36        34        39        12        14         0         0        39        32        32        32        30        30        14        18 
dram[5]:        35        33        35        40        14        12         0         0        41        32        32        32        30        30        14        16 
total reads: 2377
min_bank_accesses = 0!
chip skew: 403/390 = 1.03
average mf latency per bank:
dram[0]:       8217      8774      9231      9292     10485     10502     14388     14872     11618      9748     13969     15066     16874     15824     12075     12111
dram[1]:       8355      8667      8741      9471     11667     10321     14681     14042     11150      9907     14878     15521     17662     15645     11562     12517
dram[2]:       7995      8096      9574      8498     10435     10340     13721     14411      9940     10322     15063     14998     15901     16546     11947     11843
dram[3]:       8873      9424     10492      8459     10105     11126     14541     13220      9611     10232     15249     14735     15443     17022     11633     11207
dram[4]:       8454      8194      9322      8861     10318     11226     16179     16041     13483      9621     14585     15132     16912     15850     11531     10855
dram[5]:       8781      8985      9171      9294     10960     10180     15805     14185     12782     10385     15158     15838     15624     14557     11368     12070
maximum mf latency per bank:
dram[0]:        309       339       319       304       555       642       440       489       461       489       513       515       360       344       376       345
dram[1]:        298       479       359       485       680       489       596       503       515       505       439       381       511       469       345       467
dram[2]:        341       306       314       327       548       546       538       422       448       409       429       412       375       389       310       335
dram[3]:        370       350       346       357       529       594       550       506       404       386       397       478       421       359       402       339
dram[4]:        332       301       357       336       657       590       560       503       599       415       450       403       561       379       339       344
dram[5]:        303       321       357       327       580       620       587       542       526       404       586       389       497       418       336       357

Number of Memory Banks Accessed per Memory Operation per Warp (from 0):
0	0	0	0	0	0	0	0	0	0	0	0	0	0	0	0	0	0	0	0	0	0	0	0	0	0	0	0	0	0	0	0	0	0	0	0	0	0	0	0	0	0	0	0	0	0	0	0	0	0	0	0	0	0	0	0	0	0	0	0	0	0	0	0	0	0	0	0	0	0	0	0	0	0	0	0	0	0	0	0	0	0	0	0	0	0	0	0	0	0	0	0	0	0	0	0	
Average # of Memory Banks Accessed per Memory Operation per Warp=-nan

position of mrq chosen
0	0	0	0	0	0	0	0	0	0	0	0	0	0	0	0	

average position of mrq chosen = -nan
Memory Partition 0: 
Cache L2_bank_000:
MSHR contents

Cache L2_bank_001:
MSHR contents

In Dram Latency Queue (total = 0): 
DRAM[0]: 16 bks, busW=4 BL=8 CL=12, tRRD=2 tCCD=6, tRCD=12 tRAS=28 tRP=12 tRC=40
n_cmd=3839593 n_nop=3836171 n_act=258 n_pre=242 n_req=1563 n_rd=2346 n_write=576 bw_util=0.001522
n_activity=28646 dram_eff=0.204
bk0: 136a 3838737i bk1: 132a 3838827i bk2: 128a 3838900i bk3: 128a 3838926i bk4: 148a 3838611i bk5: 148a 3838239i bk6: 192a 3838081i bk7: 192a 3838183i bk8: 188a 3837641i bk9: 186a 3837705i bk10: 128a 3838660i bk11: 128a 3838730i bk12: 128a 3838763i bk13: 128a 3838845i bk14: 128a 3839052i bk15: 128a 3839035i 
dram_util_bins: 0 0 0 0 0 0 0 0 0 0
dram_eff_bins: 0 0 0 0 0 0 0 0 0 0
mrqq: max=5 avg=0.00109387
Memory Partition 1: 
Cache L2_bank_002:
MSHR contents

Cache L2_bank_003:
MSHR contents

In Dram Latency Queue (total = 0): 
DRAM[1]: 16 bks, busW=4 BL=8 CL=12, tRRD=2 tCCD=6, tRCD=12 tRAS=28 tRP=12 tRC=40
n_cmd=3839593 n_nop=3836160 n_act=253 n_pre=237 n_req=1572 n_rd=2350 n_write=593 bw_util=0.001533
n_activity=28808 dram_eff=0.2043
bk0: 136a 3838777i bk1: 136a 3838669i bk2: 128a 3838841i bk3: 128a 3838850i bk4: 148a 3838588i bk5: 148a 3838348i bk6: 192a 3838173i bk7: 192a 3838341i bk8: 188a 3837761i bk9: 186a 3837542i bk10: 128a 3838709i bk11: 128a 3838732i bk12: 128a 3838786i bk13: 128a 3838749i bk14: 128a 3839052i bk15: 128a 3838964i 
dram_util_bins: 0 0 0 0 0 0 0 0 0 0
dram_eff_bins: 0 0 0 0 0 0 0 0 0 0
mrqq: max=5 avg=0.00106782
Memory Partition 2: 
Cache L2_bank_004:
MSHR contents

Cache L2_bank_005:
MSHR contents

In Dram Latency Queue (total = 0): 
DRAM[2]: 16 bks, busW=4 BL=8 CL=12, tRRD=2 tCCD=6, tRCD=12 tRAS=28 tRP=12 tRC=40
n_cmd=3839593 n_nop=3836213 n_act=235 n_pre=219 n_req=1567 n_rd=2348 n_write=578 bw_util=0.001524
n_activity=28340 dram_eff=0.2065
bk0: 132a 3838791i bk1: 136a 3838720i bk2: 128a 3838896i bk3: 128a 3838805i bk4: 148a 3838648i bk5: 152a 3838381i bk6: 192a 3838169i bk7: 192a 3838229i bk8: 188a 3837801i bk9: 184a 3837867i bk10: 128a 3838736i bk11: 128a 3838700i bk12: 128a 3838817i bk13: 128a 3838768i bk14: 128a 3839027i bk15: 128a 3839070i 
dram_util_bins: 0 0 0 0 0 0 0 0 0 0
dram_eff_bins: 0 0 0 0 0 0 0 0 0 0
mrqq: max=8 avg=0.00105975
Memory Partition 3: 
Cache L2_bank_006:
MSHR contents

Cache L2_bank_007:
MSHR contents

In Dram Latency Queue (total = 0): 
DRAM[3]: 16 bks, busW=4 BL=8 CL=12, tRRD=2 tCCD=6, tRCD=12 tRAS=28 tRP=12 tRC=40
n_cmd=3839593 n_nop=3836200 n_act=230 n_pre=214 n_req=1577 n_rd=2348 n_write=601 bw_util=0.001536
n_activity=28158 dram_eff=0.2095
bk0: 132a 3838791i bk1: 136a 3838748i bk2: 128a 3838826i bk3: 128a 3838856i bk4: 148a 3838594i bk5: 152a 3838471i bk6: 192a 3838274i bk7: 192a 3838328i bk8: 188a 3837738i bk9: 184a 3837765i bk10: 128a 3838678i bk11: 128a 3838733i bk12: 128a 3838824i bk13: 128a 3838822i bk14: 128a 3838956i bk15: 128a 3838932i 
dram_util_bins: 0 0 0 0 0 0 0 0 0 0
dram_eff_bins: 0 0 0 0 0 0 0 0 0 0
mrqq: max=9 avg=0.00128972
Memory Partition 4: 
Cache L2_bank_008:
MSHR contents

Cache L2_bank_009:
MSHR contents

In Dram Latency Queue (total = 0): 
DRAM[4]: 16 bks, busW=4 BL=8 CL=12, tRRD=2 tCCD=6, tRCD=12 tRAS=28 tRP=12 tRC=40
n_cmd=3839593 n_nop=3836175 n_act=256 n_pre=240 n_req=1570 n_rd=2344 n_write=578 bw_util=0.001522
n_activity=29040 dram_eff=0.2012
bk0: 132a 3838822i bk1: 132a 3838818i bk2: 128a 3838864i bk3: 128a 3838858i bk4: 148a 3838415i bk5: 152a 3838396i bk6: 192a 3838321i bk7: 192a 3838124i bk8: 188a 3837677i bk9: 184a 3837576i bk10: 128a 3838655i bk11: 128a 3838753i bk12: 128a 3838831i bk13: 128a 3838797i bk14: 128a 3839038i bk15: 128a 3838984i 
dram_util_bins: 0 0 0 0 0 0 0 0 0 0
dram_eff_bins: 0 0 0 0 0 0 0 0 0 0
mrqq: max=8 avg=0.00118684
Memory Partition 5: 
Cache L2_bank_010:
MSHR contents

Cache L2_bank_011:
MSHR contents

In Dram Latency Queue (total = 0): 
DRAM[5]: 16 bks, busW=4 BL=8 CL=12, tRRD=2 tCCD=6, tRCD=12 tRAS=28 tRP=12 tRC=40
n_cmd=3839593 n_nop=3836168 n_act=254 n_pre=238 n_req=1568 n_rd=2344 n_write=589 bw_util=0.001528
n_activity=28978 dram_eff=0.2024
bk0: 132a 3838799i bk1: 132a 3838882i bk2: 128a 3838864i bk3: 128a 3838855i bk4: 148a 3838394i bk5: 152a 3838366i bk6: 192a 3838354i bk7: 192a 3838006i bk8: 188a 3837691i bk9: 184a 3837652i bk10: 128a 3838668i bk11: 128a 3838726i bk12: 128a 3838804i bk13: 128a 3838783i bk14: 128a 3839060i bk15: 128a 3839030i 
dram_util_bins: 0 0 0 0 0 0 0 0 0 0
dram_eff_bins: 0 0 0 0 0 0 0 0 0 0
mrqq: max=4 avg=0.00103136

========= L2 cache stats =========
L2_cache_bank[0]: Access = 59770, Miss = 588, Miss_rate = 0.010, Pending_hits = 94, Reservation_fails = 613
L2_cache_bank[1]: Access = 59277, Miss = 585, Miss_rate = 0.010, Pending_hits = 56, Reservation_fails = 310
L2_cache_bank[2]: Access = 59961, Miss = 588, Miss_rate = 0.010, Pending_hits = 83, Reservation_fails = 575
L2_cache_bank[3]: Access = 60028, Miss = 587, Miss_rate = 0.010, Pending_hits = 80, Reservation_fails = 398
L2_cache_bank[4]: Access = 58160, Miss = 586, Miss_rate = 0.010, Pending_hits = 70, Reservation_fails = 174
L2_cache_bank[5]: Access = 59235, Miss = 588, Miss_rate = 0.010, Pending_hits = 66, Reservation_fails = 264
L2_cache_bank[6]: Access = 59954, Miss = 586, Miss_rate = 0.010, Pending_hits = 87, Reservation_fails = 512
L2_cache_bank[7]: Access = 59593, Miss = 588, Miss_rate = 0.010, Pending_hits = 71, Reservation_fails = 374
L2_cache_bank[8]: Access = 60431, Miss = 586, Miss_rate = 0.010, Pending_hits = 71, Reservation_fails = 567
L2_cache_bank[9]: Access = 58826, Miss = 586, Miss_rate = 0.010, Pending_hits = 69, Reservation_fails = 343
L2_cache_bank[10]: Access = 60235, Miss = 586, Miss_rate = 0.010, Pending_hits = 85, Reservation_fails = 297
L2_cache_bank[11]: Access = 59198, Miss = 586, Miss_rate = 0.010, Pending_hits = 78, Reservation_fails = 363
L2_total_cache_accesses = 714668
L2_total_cache_misses = 7040
L2_total_cache_miss_rate = 0.0099
L2_total_cache_pending_hits = 910
L2_total_cache_reservation_fails = 4790
L2_total_cache_breakdown:
	L2_cache_stats_breakdown[GLOBAL_ACC_R][HIT] = 701202
	L2_cache_stats_breakdown[GLOBAL_ACC_R][HIT_RESERVED] = 693
	L2_cache_stats_breakdown[GLOBAL_ACC_R][MISS] = 4933
	L2_cache_stats_breakdown[GLOBAL_ACC_R][RESERVATION_FAIL] = 3240
	L2_cache_stats_breakdown[CONST_ACC_R][HIT] = 63
	L2_cache_stats_breakdown[CONST_ACC_R][HIT_RESERVED] = 9
	L2_cache_stats_breakdown[CONST_ACC_R][MISS] = 3
	L2_cache_stats_breakdown[CONST_ACC_R][RESERVATION_FAIL] = 312
	L2_cache_stats_breakdown[GLOBAL_ACC_W][HIT] = 5145
	L2_cache_stats_breakdown[GLOBAL_ACC_W][HIT_RESERVED] = 166
	L2_cache_stats_breakdown[GLOBAL_ACC_W][MISS] = 2079
	L2_cache_stats_breakdown[GLOBAL_ACC_W][RESERVATION_FAIL] = 256
	L2_cache_stats_breakdown[INST_ACC_R][HIT] = 308
	L2_cache_stats_breakdown[INST_ACC_R][HIT_RESERVED] = 42
	L2_cache_stats_breakdown[INST_ACC_R][MISS] = 25
	L2_cache_stats_breakdown[INST_ACC_R][RESERVATION_FAIL] = 982
L2_cache_data_port_util = 0.081
L2_cache_fill_port_util = 0.001

icnt_total_pkts_mem_to_simt=3543630
icnt_total_pkts_simt_to_mem=728983
LD_mem_lat_dist  0 0 0 0 0 0 0 0 0 0 0 0 0 0 0 0 0 0 0 0 0 0 0 0 0 0 0
ST_mem_lat_dist  0 0 0 0 0 0 0 0 0 0 0 0 0 0 0 0 0 0 0 0 0 0 0 0 0 0 0
----------------------------Interconnect-DETAILS--------------------------------
Class 0:
Packet latency average = 10.5441
	minimum = 6
	maximum = 82
Network latency average = 9.6487
	minimum = 6
	maximum = 68
Slowest packet = 1427513
Flit latency average = 7.78195
	minimum = 6
	maximum = 67
Slowest flit = 4268010
Fragmentation average = 0
	minimum = 0
	maximum = 0
Injected packet rate average = 0.00522474
	minimum = 0.0040254 (at node 6)
	maximum = 0.00840862 (at node 16)
Accepted packet rate average = 0.00522474
	minimum = 0.0040254 (at node 6)
	maximum = 0.00840862 (at node 16)
Injected flit rate average = 0.0142827
	minimum = 0.00478576 (at node 6)
	maximum = 0.0305931 (at node 16)
Accepted flit rate average= 0.0142827
	minimum = 0.00447267 (at node 17)
	maximum = 0.0233473 (at node 3)
Injected packet length average = 2.73367
Accepted packet length average = 2.73367
Total in-flight flits = 0 (0 measured)
====== Overall Traffic Statistics ======
====== Traffic class 0 ======
Packet latency average = 13.1602 (4 samples)
	minimum = 6 (4 samples)
	maximum = 102.75 (4 samples)
Network latency average = 11.5869 (4 samples)
	minimum = 6 (4 samples)
	maximum = 92.75 (4 samples)
Flit latency average = 10.3105 (4 samples)
	minimum = 6 (4 samples)
	maximum = 91.5 (4 samples)
Fragmentation average = 0.000784233 (4 samples)
	minimum = 0 (4 samples)
	maximum = 30.25 (4 samples)
Injected packet rate average = 0.0356761 (4 samples)
	minimum = 0.027836 (4 samples)
	maximum = 0.0443896 (4 samples)
Accepted packet rate average = 0.0356761 (4 samples)
	minimum = 0.027836 (4 samples)
	maximum = 0.0443896 (4 samples)
Injected flit rate average = 0.106213 (4 samples)
	minimum = 0.02955 (4 samples)
	maximum = 0.216168 (4 samples)
Accepted flit rate average = 0.106213 (4 samples)
	minimum = 0.0390586 (4 samples)
	maximum = 0.179358 (4 samples)
Injected packet size average = 2.97713 (4 samples)
Accepted packet size average = 2.97713 (4 samples)
Hops average = 1 (4 samples)
----------------------------END-of-Interconnect-DETAILS-------------------------


gpgpu_simulation_time = 0 days, 0 hrs, 20 min, 56 sec (1256 sec)
gpgpu_simulation_rate = 62381 (inst/sec)
gpgpu_simulation_rate = 2315 (cycle/sec)
7 2 1 0 4 1 4 9 6 9 0 6 9 0 1 5 9 7 3 4 9 6 6 5 4 0 7 4
