

        *** GPGPU-Sim Simulator Version 3.2.2  [build 0] ***


GPGPU-Sim PTX: simulation mode 0 (can change with PTX_SIM_MODE_FUNC environment variable:
               1=functional simulation only, 0=detailed performance simulator)
GPGPU-Sim: Configuration options:

-network_mode                           1 # Interconnection network mode
-inter_config_file   config_fermi_islip.icnt # Interconnection network config file
-gpgpu_ptx_use_cuobjdump                    1 # Use cuobjdump to extract ptx and sass from binaries
-gpgpu_experimental_lib_support                    0 # Try to extract code from cuda libraries [Broken because of unknown cudaGetExportTable]
-gpgpu_ptx_convert_to_ptxplus                    0 # Convert SASS (native ISA) to ptxplus and run ptxplus
-gpgpu_ptx_force_max_capability                   20 # Force maximum compute capability
-gpgpu_ptx_inst_debug_to_file                    0 # Dump executed instructions' debug information to file
-gpgpu_ptx_inst_debug_file       inst_debug.txt # Executed instructions' debug output file
-gpgpu_ptx_inst_debug_thread_uid                    1 # Thread UID for executed instructions' debug output
-gpgpu_simd_model                       1 # 1 = post-dominator
-gpgpu_shader_core_pipeline              1536:32 # shader core pipeline config, i.e., {<nthread>:<warpsize>}
-gpgpu_tex_cache:l1  4:128:24,L:R:m:N:L,F:128:4,128:2 # per-shader L1 texture cache  (READ-ONLY) config  {<nsets>:<bsize>:<assoc>,<rep>:<wr>:<alloc>:<wr_alloc>,<mshr>:<N>:<merge>,<mq>:<rf>}
-gpgpu_const_cache:l1 64:64:2,L:R:f:N:L,A:2:32,4 # per-shader L1 constant memory cache  (READ-ONLY) config  {<nsets>:<bsize>:<assoc>,<rep>:<wr>:<alloc>:<wr_alloc>,<mshr>:<N>:<merge>,<mq>} 
-gpgpu_cache:il1     4:128:4,L:R:f:N:L,A:2:32,4 # shader L1 instruction cache config  {<nsets>:<bsize>:<assoc>,<rep>:<wr>:<alloc>:<wr_alloc>,<mshr>:<N>:<merge>,<mq>} 
-gpgpu_cache:dl1     64:128:8,L:L:m:N:H,A:32:8,8 # per-shader L1 data cache config  {<nsets>:<bsize>:<assoc>,<rep>:<wr>:<alloc>:<wr_alloc>,<mshr>:<N>:<merge>,<mq> | none}
-gpgpu_cache:dl1PrefL1                 none # per-shader L1 data cache config  {<nsets>:<bsize>:<assoc>,<rep>:<wr>:<alloc>:<wr_alloc>,<mshr>:<N>:<merge>,<mq> | none}
-gpgpu_cache:dl1PreShared                 none # per-shader L1 data cache config  {<nsets>:<bsize>:<assoc>,<rep>:<wr>:<alloc>:<wr_alloc>,<mshr>:<N>:<merge>,<mq> | none}
-gmem_skip_L1D                          0 # global memory access skip L1D cache (implements -Xptxas -dlcm=cg, default=no skip)
-gpgpu_perfect_mem                      0 # enable perfect memory mode (no cache miss)
-n_regfile_gating_group                    4 # group of lanes that should be read/written together)
-gpgpu_clock_gated_reg_file                    0 # enable clock gated reg file for power calculations
-gpgpu_clock_gated_lanes                    0 # enable clock gated lanes for power calculations
-gpgpu_shader_registers                32768 # Number of registers per shader core. Limits number of concurrent CTAs. (default 8192)
-gpgpu_shader_cta                       8 # Maximum number of concurrent CTAs in shader (default 8)
-gpgpu_num_cta_barriers                   16 # Maximum number of named barriers per CTA (default 16)
-gpgpu_n_clusters                      15 # number of processing clusters
-gpgpu_n_cores_per_cluster                    1 # number of simd cores per cluster
-gpgpu_n_cluster_ejection_buffer_size                    8 # number of packets in ejection buffer
-gpgpu_n_ldst_response_buffer_size                    2 # number of response packets in ld/st unit ejection buffer
-gpgpu_shmem_size                   16384 # Size of shared memory per shader core (default 16kB)
-gpgpu_shmem_size                   49152 # Size of shared memory per shader core (default 16kB)
-gpgpu_shmem_size_PrefL1                16384 # Size of shared memory per shader core (default 16kB)
-gpgpu_shmem_size_PrefShared                16384 # Size of shared memory per shader core (default 16kB)
-gpgpu_shmem_num_banks                   32 # Number of banks in the shared memory in each shader core (default 16)
-gpgpu_shmem_limited_broadcast                    0 # Limit shared memory to do one broadcast per cycle (default on)
-gpgpu_shmem_warp_parts                    1 # Number of portions a warp is divided into for shared memory bank conflict check 
-gpgpu_warpdistro_shader                   -1 # Specify which shader core to collect the warp size distribution from
-gpgpu_warp_issue_shader                    0 # Specify which shader core to collect the warp issue distribution from
-gpgpu_local_mem_map                    1 # Mapping from local memory space address to simulated GPU physical address space (default = enabled)
-gpgpu_num_reg_banks                   16 # Number of register banks (default = 8)
-gpgpu_reg_bank_use_warp_id                    0 # Use warp ID in mapping registers to banks (default = off)
-gpgpu_operand_collector_num_units_sp                    6 # number of collector units (default = 4)
-gpgpu_operand_collector_num_units_sfu                    8 # number of collector units (default = 4)
-gpgpu_operand_collector_num_units_mem                    2 # number of collector units (default = 2)
-gpgpu_operand_collector_num_units_gen                    0 # number of collector units (default = 0)
-gpgpu_operand_collector_num_in_ports_sp                    2 # number of collector unit in ports (default = 1)
-gpgpu_operand_collector_num_in_ports_sfu                    1 # number of collector unit in ports (default = 1)
-gpgpu_operand_collector_num_in_ports_mem                    1 # number of collector unit in ports (default = 1)
-gpgpu_operand_collector_num_in_ports_gen                    0 # number of collector unit in ports (default = 0)
-gpgpu_operand_collector_num_out_ports_sp                    2 # number of collector unit in ports (default = 1)
-gpgpu_operand_collector_num_out_ports_sfu                    1 # number of collector unit in ports (default = 1)
-gpgpu_operand_collector_num_out_ports_mem                    1 # number of collector unit in ports (default = 1)
-gpgpu_operand_collector_num_out_ports_gen                    0 # number of collector unit in ports (default = 0)
-gpgpu_coalesce_arch                   13 # Coalescing arch (default = 13, anything else is off for now)
-gpgpu_num_sched_per_core                    2 # Number of warp schedulers per core
-gpgpu_max_insn_issue_per_warp                    1 # Max number of instructions that can be issued per warp in one cycle by scheduler
-gpgpu_simt_core_sim_order                    1 # Select the simulation order of cores in a cluster (0=Fix, 1=Round-Robin)
-gpgpu_pipeline_widths        2,1,1,2,1,1,2 # Pipeline widths ID_OC_SP,ID_OC_SFU,ID_OC_MEM,OC_EX_SP,OC_EX_SFU,OC_EX_MEM,EX_WB
-gpgpu_num_sp_units                     2 # Number of SP units (default=1)
-gpgpu_num_sfu_units                    1 # Number of SF units (default=1)
-gpgpu_num_mem_units                    1 # Number if ldst units (default=1) WARNING: not hooked up to anything
-gpgpu_scheduler                      gto # Scheduler configuration: < lrr | gto | two_level_active > If two_level_active:<num_active_warps>:<inner_prioritization>:<outer_prioritization>For complete list of prioritization values see shader.h enum scheduler_prioritization_typeDefault: gto
-gpgpu_dram_scheduler                    1 # 0 = fifo, 1 = FR-FCFS (defaul)
-gpgpu_dram_partition_queues              8:8:8:8 # i2$:$2d:d2$:$2i
-l2_ideal                               0 # Use a ideal L2 cache that always hit
-gpgpu_cache:dl2     64:128:8,L:B:m:W:L,A:32:4,4:0,32 # unified banked L2 data cache config  {<nsets>:<bsize>:<assoc>,<rep>:<wr>:<alloc>:<wr_alloc>,<mshr>:<N>:<merge>,<mq>}
-gpgpu_cache:dl2_texture_only                    0 # L2 cache used for texture only
-gpgpu_n_mem                            6 # number of memory modules (e.g. memory controllers) in gpu
-gpgpu_n_sub_partition_per_mchannel                    2 # number of memory subpartition in each memory module
-gpgpu_n_mem_per_ctrlr                    2 # number of memory chips per memory controller
-gpgpu_memlatency_stat                   14 # track and display latency statistics 0x2 enables MC, 0x4 enables queue logs
-gpgpu_frfcfs_dram_sched_queue_size                   16 # 0 = unlimited (default); # entries per chip
-gpgpu_dram_return_queue_size                  116 # 0 = unlimited (default); # entries per chip
-gpgpu_dram_buswidth                    4 # default = 4 bytes (8 bytes per cycle at DDR)
-gpgpu_dram_burst_length                    8 # Burst length of each DRAM request (default = 4 data bus cycle)
-dram_data_command_freq_ratio                    4 # Frequency ratio between DRAM data bus and command bus (default = 2 times, i.e. DDR)
-gpgpu_dram_timing_opt nbk=16:CCD=2:RRD=6:RCD=12:RAS=28:RP=12:RC=40: CL=12:WL=4:CDLR=5:WR=12:nbkgrp=4:CCDL=3:RTPL=2 # DRAM timing parameters = {nbk:tCCD:tRRD:tRCD:tRAS:tRP:tRC:CL:WL:tCDLR:tWR:nbkgrp:tCCDL:tRTPL}
-rop_latency                          120 # ROP queue latency (default 85)
-dram_latency                         100 # DRAM latency (default 30)
-gpgpu_mem_addr_mapping dramid@8;00000000.00000000.00000000.00000000.0000RRRR.RRRRRRRR.BBBCCCCB.CCSSSSSS # mapping memory address to dram model {dramid@<start bit>;<memory address map>}
-gpgpu_mem_addr_test                    0 # run sweep test to check address mapping for aliased address
-gpgpu_mem_address_mask                    1 # 0 = old addressing mask, 1 = new addressing mask, 2 = new add. mask + flipped bank sel and chip sel bits
-gpuwattch_xml_file  gpuwattch_gtx480.xml # GPUWattch XML file
-power_simulation_enabled                    1 # Turn on power simulator (1=On, 0=Off)
-power_per_cycle_dump                    0 # Dump detailed power output each cycle
-power_trace_enabled                    0 # produce a file for the power trace (1=On, 0=Off)
-power_trace_zlevel                     6 # Compression level of the power trace output log (0=no comp, 9=highest)
-steady_power_levels_enabled                    0 # produce a file for the steady power levels (1=On, 0=Off)
-steady_state_definition                  8:4 # allowed deviation:number of samples
-gpgpu_max_cycle                        0 # terminates gpu simulation early (0 = no limit)
-gpgpu_max_insn                         0 # terminates gpu simulation early (0 = no limit)
-gpgpu_max_cta                          0 # terminates gpu simulation early (0 = no limit)
-gpgpu_runtime_stat                   500 # display runtime statistics such as dram utilization {<freq>:<flag>}
-liveness_message_freq                    1 # Minimum number of seconds between simulation liveness messages (0 = always print)
-gpgpu_flush_l1_cache                    0 # Flush L1 cache at the end of each kernel call
-gpgpu_flush_l2_cache                    0 # Flush L2 cache at the end of each kernel call
-gpgpu_deadlock_detect                    1 # Stop the simulation at deadlock (1=on (default), 0=off)
-gpgpu_ptx_instruction_classification                    0 # if enabled will classify ptx instruction types per kernel (Max 255 kernels now)
-gpgpu_ptx_sim_mode                     0 # Select between Performance (default) or Functional simulation (1)
-gpgpu_clock_domains 700.0:700.0:700.0:924.0 # Clock Domain Frequencies in MhZ {<Core Clock>:<ICNT Clock>:<L2 Clock>:<DRAM Clock>}
-gpgpu_max_concurrent_kernel                    8 # maximum kernels that can run concurrently on GPU
-gpgpu_cflog_interval                    0 # Interval between each snapshot in control flow logger
-visualizer_enabled                     0 # Turn on visualizer output (1=On, 0=Off)
-visualizer_outputfile                 NULL # Specifies the output log file for visualizer
-visualizer_zlevel                      6 # Compression level of the visualizer output log (0=no comp, 9=highest)
-trace_enabled                          0 # Turn on traces
-trace_components                    none # comma seperated list of traces to enable. Complete list found in trace_streams.tup. Default none
-trace_sampling_core                    0 # The core which is printed using CORE_DPRINTF. Default 0
-trace_sampling_memory_partition                   -1 # The memory partition which is printed using MEMPART_DPRINTF. Default -1 (i.e. all)
-enable_ptx_file_line_stats                    1 # Turn on PTX source line statistic profiling. (1 = On)
-ptx_line_stats_filename gpgpu_inst_stats.txt # Output file for PTX source line statistics.
-save_embedded_ptx                      0 # saves ptx files embedded in binary as <n>.ptx
-keep                                   0 # keep intermediate files created by GPGPU-Sim when interfacing with external programs
-gpgpu_ptx_save_converted_ptxplus                    0 # Saved converted ptxplus to a file
-ptx_opcode_latency_int         4,13,4,5,145 # Opcode latencies for integers <ADD,MAX,MUL,MAD,DIV>Default 1,1,19,25,145
-ptx_opcode_latency_fp          4,13,4,5,39 # Opcode latencies for single precision floating points <ADD,MAX,MUL,MAD,DIV>Default 1,1,1,1,30
-ptx_opcode_latency_dp         8,19,8,8,330 # Opcode latencies for double precision floating points <ADD,MAX,MUL,MAD,DIV>Default 8,8,8,8,335
-ptx_opcode_initiation_int            1,2,2,1,8 # Opcode initiation intervals for integers <ADD,MAX,MUL,MAD,DIV>Default 1,1,4,4,32
-ptx_opcode_initiation_fp            1,2,1,1,4 # Opcode initiation intervals for single precision floating points <ADD,MAX,MUL,MAD,DIV>Default 1,1,1,1,5
-ptx_opcode_initiation_dp         8,16,8,8,130 # Opcode initiation intervals for double precision floating points <ADD,MAX,MUL,MAD,DIV>Default 8,8,8,8,130
DRAM Timing Options:
nbk                                    16 # number of banks
CCD                                     2 # column to column delay
RRD                                     6 # minimal delay between activation of rows in different banks
RCD                                    12 # row to column delay
RAS                                    28 # time needed to activate row
RP                                     12 # time needed to precharge (deactivate) row
RC                                     40 # row cycle time
CDLR                                    5 # switching from write to read (changes tWTR)
WR                                     12 # last data-in to row precharge
CL                                     12 # CAS latency
WL                                      4 # Write latency
nbkgrp                                  4 # number of bank groups
CCDL                                    3 # column to column delay between accesses to different bank groups
RTPL                                    2 # read to precharge delay between accesses to different bank groups
Total number of memory sub partition = 12
addr_dec_mask[CHIP]  = 0000000000000000 	high:64 low:0
addr_dec_mask[BK]    = 000000000000e100 	high:16 low:8
addr_dec_mask[ROW]   = 000000000fff0000 	high:28 low:16
addr_dec_mask[COL]   = 0000000000001eff 	high:13 low:0
addr_dec_mask[BURST] = 000000000000003f 	high:6 low:0
sub_partition_id_mask = 0000000000000100
GPGPU-Sim uArch: clock freqs: 700000000.000000:700000000.000000:700000000.000000:924000000.000000
GPGPU-Sim uArch: clock periods: 0.00000000142857142857:0.00000000142857142857:0.00000000142857142857:0.00000000108225108225
*** Initializing Memory Statistics ***
GPGPU-Sim uArch: interconnect node map (shaderID+MemID to icntID)
GPGPU-Sim uArch: Memory nodes ID start from index: 15
GPGPU-Sim uArch:    0   1   2   3   4
GPGPU-Sim uArch:    5   6   7   8   9
GPGPU-Sim uArch:   10  11  12  13  14
GPGPU-Sim uArch:   15  16  17  18  19
GPGPU-Sim uArch:   20  21  22  23  24
GPGPU-Sim uArch:   25  26
GPGPU-Sim uArch: interconnect node reverse map (icntID to shaderID+MemID)
GPGPU-Sim uArch: Memory nodes start from ID: 15
GPGPU-Sim uArch:    0   1   2   3   4
GPGPU-Sim uArch:    5   6   7   8   9
GPGPU-Sim uArch:   10  11  12  13  14
GPGPU-Sim uArch:   15  16  17  18  19
GPGPU-Sim uArch:   20  21  22  23  24
GPGPU-Sim uArch:   25  26
db8fd71b22e5f9e87a0df9a155b78fdf  /home/scratch/adwait/applications/benchmarks/CUDA/KMN/gpgpu_ptx_sim__KMN
GPGPU-Sim uArch: performance model initialization complete.
GPGPU-Sim PTX: __cudaRegisterFatBinary, fat_cubin_handle = 1, filename=kmeans_cuda.cu
self exe links to: /home/scratch/adwait/applications/benchmarks/CUDA/KMN/gpgpu_ptx_sim__KMN
Running md5sum using "md5sum /home/scratch/adwait/applications/benchmarks/CUDA/KMN/gpgpu_ptx_sim__KMN "
Running cuobjdump using "$CUDA_INSTALL_PATH/bin/cuobjdump -ptx -elf -sass /home/scratch/adwait/applications/benchmarks/CUDA/KMN/gpgpu_ptx_sim__KMN > _cuobjdump_complete_output_HfHeZW"
Parsing file _cuobjdump_complete_output_HfHeZW
######### cuobjdump parser ########
## Adding new section ELF
Adding arch: sm_20
Adding identifier: kmeans_cuda.cu
## Adding new section PTX
Adding ptx filename: _cuobjdump_1.ptx
Adding arch: sm_20
Adding identifier: kmeans_cuda.cu
Done parsing!!!
GPGPU-Sim PTX: __cudaRegisterFunction _Z11kmeansPointPfiiiPiS_S_S0_ : hostFun 0x0x402c28, fat_cubin_handle = 1
GPGPU-Sim PTX: instruction assembly for function '_Z14invert_mappingPfS_ii'...   done.
GPGPU-Sim PTX: finding reconvergence points for '_Z14invert_mappingPfS_ii'...
GPGPU-Sim PTX: Finding dominators for '_Z14invert_mappingPfS_ii'...
GPGPU-Sim PTX: Finding immediate dominators for '_Z14invert_mappingPfS_ii'...
GPGPU-Sim PTX: Finding postdominators for '_Z14invert_mappingPfS_ii'...
GPGPU-Sim PTX: Finding immediate postdominators for '_Z14invert_mappingPfS_ii'...
GPGPU-Sim PTX: pre-decoding instructions for '_Z14invert_mappingPfS_ii'...
GPGPU-Sim PTX: reconvergence points for _Z14invert_mappingPfS_ii...
GPGPU-Sim PTX:  1 (potential) branch divergence @  PC=0x038 (_1.ptx:70) @%p1 bra $Lt_0_2050;
GPGPU-Sim PTX:    immediate post dominator      @  PC=0x110 (_1.ptx:103) exit;
GPGPU-Sim PTX:  2 (potential) branch divergence @  PC=0x058 (_1.ptx:74) @%p2 bra $Lt_0_2562;
GPGPU-Sim PTX:    immediate post dominator      @  PC=0x110 (_1.ptx:103) exit;
GPGPU-Sim PTX:  3 (potential) branch divergence @  PC=0x108 (_1.ptx:99) @%p3 bra $Lt_0_3074;
GPGPU-Sim PTX:    immediate post dominator      @  PC=0x110 (_1.ptx:103) exit;
GPGPU-Sim PTX: ... end of reconvergence points for _Z14invert_mappingPfS_ii
GPGPU-Sim PTX: ... done pre-decoding instructions for '_Z14invert_mappingPfS_ii'.
GPGPU-Sim PTX: instruction assembly for function '_Z11kmeansPointPfiiiPiS_S_S0_'...   done.
GPGPU-Sim PTX: finding reconvergence points for '_Z11kmeansPointPfiiiPiS_S_S0_'...
GPGPU-Sim PTX: Finding dominators for '_Z11kmeansPointPfiiiPiS_S_S0_'...
GPGPU-Sim PTX: Finding immediate dominators for '_Z11kmeansPointPfiiiPiS_S_S0_'...
GPGPU-Sim PTX: Finding postdominators for '_Z11kmeansPointPfiiiPiS_S_S0_'...
GPGPU-Sim PTX: Finding immediate postdominators for '_Z11kmeansPointPfiiiPiS_S_S0_'...
GPGPU-Sim PTX: pre-decoding instructions for '_Z11kmeansPointPfiiiPiS_S_S0_'...
GPGPU-Sim PTX: reconvergence points for _Z11kmeansPointPfiiiPiS_S_S0_...
GPGPU-Sim PTX:  1 (potential) branch divergence @  PC=0x180 (_1.ptx:136) @!%p1 bra $Lt_1_4866;
GPGPU-Sim PTX:    immediate post dominator      @  PC=0x320 (_1.ptx:202) @!%p1 bra $Lt_1_7682;
GPGPU-Sim PTX:  2 (potential) branch divergence @  PC=0x1a0 (_1.ptx:140) @%p2 bra $Lt_1_8194;
GPGPU-Sim PTX:    immediate post dominator      @  PC=0x320 (_1.ptx:202) @!%p1 bra $Lt_1_7682;
GPGPU-Sim PTX:  3 (potential) branch divergence @  PC=0x1e8 (_1.ptx:151) @!%p3 bra $Lt_1_8450;
GPGPU-Sim PTX:    immediate post dominator      @  PC=0x2c8 (_1.ptx:185) setp.lt.f32 %p5, %f2, %f1;
GPGPU-Sim PTX:  4 (potential) branch divergence @  PC=0x2b0 (_1.ptx:180) @%p4 bra $Lt_1_6402;
GPGPU-Sim PTX:    immediate post dominator      @  PC=0x2b8 (_1.ptx:181) bra.uni $Lt_1_5890;
GPGPU-Sim PTX:  5 (potential) branch divergence @  PC=0x2b8 (_1.ptx:181) bra.uni $Lt_1_5890;
GPGPU-Sim PTX:    immediate post dominator      @  PC=0x2c8 (_1.ptx:185) setp.lt.f32 %p5, %f2, %f1;
GPGPU-Sim PTX:  6 (potential) branch divergence @  PC=0x2d0 (_1.ptx:186) @!%p5 bra $Lt_1_6914;
GPGPU-Sim PTX:    immediate post dominator      @  PC=0x2e8 (_1.ptx:192) add.s32 %r18, %r18, 1;
GPGPU-Sim PTX:  7 (potential) branch divergence @  PC=0x2f8 (_1.ptx:194) @%p6 bra $Lt_1_5634;
GPGPU-Sim PTX:    immediate post dominator      @  PC=0x300 (_1.ptx:195) bra.uni $Lt_1_4610;
GPGPU-Sim PTX:  8 (potential) branch divergence @  PC=0x300 (_1.ptx:195) bra.uni $Lt_1_4610;
GPGPU-Sim PTX:    immediate post dominator      @  PC=0x320 (_1.ptx:202) @!%p1 bra $Lt_1_7682;
GPGPU-Sim PTX:  9 (potential) branch divergence @  PC=0x310 (_1.ptx:198) bra.uni $Lt_1_4610;
GPGPU-Sim PTX:    immediate post dominator      @  PC=0x320 (_1.ptx:202) @!%p1 bra $Lt_1_7682;
GPGPU-Sim PTX: 10 (potential) branch divergence @  PC=0x320 (_1.ptx:202) @!%p1 bra $Lt_1_7682;
GPGPU-Sim PTX:    immediate post dominator      @  PC=0x350 (_1.ptx:211) exit;
GPGPU-Sim PTX: ... end of reconvergence points for _Z11kmeansPointPfiiiPiS_S_S0_
GPGPU-Sim PTX: ... done pre-decoding instructions for '_Z11kmeansPointPfiiiPiS_S_S0_'.
GPGPU-Sim PTX: allocating global region for "t_features" from 0x100 to 0x104 (global memory space)
GPGPU-Sim PTX: allocating global region for "t_features_flipped" from 0x104 to 0x108 (global memory space)
GPGPU-Sim PTX: allocating global region for "t_clusters" from 0x108 to 0x10c (global memory space)
GPGPU-Sim PTX: finished parsing EMBEDDED .ptx file _1.ptx
Adding _cuobjdump_1.ptx with cubin handle 1
GPGPU-Sim PTX: extracting embedded .ptx to temporary file "_ptx_kGOeoH"
Running: cat _ptx_kGOeoH | sed 's/.version 1.5/.version 1.4/' | sed 's/, texmode_independent//' | sed 's/\(\.extern \.const\[1\] .b8 \w\+\)\[\]/\1\[1\]/' | sed 's/const\[.\]/const\[0\]/g' > _ptx2_JoVnPr
GPGPU-Sim PTX: generating ptxinfo using "$CUDA_INSTALL_PATH/bin/ptxas --gpu-name=sm_20 -v _ptx2_JoVnPr --output-file  /dev/null 2> _ptx_kGOeoHinfo"
GPGPU-Sim PTX: Kernel '_Z11kmeansPointPfiiiPiS_S_S0_' : regs=15, lmem=0, smem=0, cmem=88
GPGPU-Sim PTX: Kernel '_Z14invert_mappingPfS_ii' : regs=10, lmem=0, smem=0, cmem=56
GPGPU-Sim PTX: removing ptxinfo using "rm -f _ptx_kGOeoH _ptx2_JoVnPr _ptx_kGOeoHinfo"
GPGPU-Sim PTX: loading globals with explicit initializers... 
GPGPU-Sim PTX: finished loading globals (0 bytes total).
GPGPU-Sim PTX: loading constants with explicit initializers...  done.
GPGPU-Sim PTX: __cudaRegisterFunction _Z14invert_mappingPfS_ii : hostFun 0x0x402a98, fat_cubin_handle = 1
GPGPU-Sim PTX: in __cudaRegisterTexture:
GPGPU-Sim PTX:   int dim = 1
GPGPU-Sim PTX:   int norm = 0
GPGPU-Sim PTX:   int ext = 0
GPGPU-Sim PTX:   Execution warning: Not finished implementing "void __cudaRegisterTexture(void**, const textureReference*, const void**, const char*, int, int, int)"
GPGPU-Sim PTX: in __cudaRegisterTexture:
GPGPU-Sim PTX:   int dim = 1
GPGPU-Sim PTX:   int norm = 0
GPGPU-Sim PTX:   int ext = 0
GPGPU-Sim PTX:   Execution warning: Not finished implementing "void __cudaRegisterTexture(void**, const textureReference*, const void**, const char*, int, int, int)"
GPGPU-Sim PTX: in __cudaRegisterTexture:
GPGPU-Sim PTX:   int dim = 1
GPGPU-Sim PTX:   int norm = 0
GPGPU-Sim PTX:   int ext = 0
GPGPU-Sim PTX:   Execution warning: Not finished implementing "void __cudaRegisterTexture(void**, const textureReference*, const void**, const char*, int, int, int)"

I/O completed

Number of objects: 28672
Number of features: 138

GPGPU-Sim PTX: cudaLaunch for 0x0x402c28 (mode=performance simulation) on stream 0
GPGPU-Sim PTX: pushing kernel '_Z11kmeansPointPfiiiPiS_S_S0_' to stream 0, gridDim= (11,11,1) blockDim = (256,1,1) 
kernel '_Z11kmeansPointPfiiiPiS_S_S0_' transfer to GPU hardware scheduler
GPGPU-Sim uArch: Shader 1 bind to kernel 1 '_Z11kmeansPointPfiiiPiS_S_S0_'
GPGPU-Sim uArch: CTA/core = 6, limited by: threads
GPGPU-Sim uArch: core:  1, cta: 0 initialized @(1,0)
GPGPU-Sim uArch: Shader 2 bind to kernel 1 '_Z11kmeansPointPfiiiPiS_S_S0_'
GPGPU-Sim uArch: core:  2, cta: 0 initialized @(1,0)
GPGPU-Sim uArch: Shader 3 bind to kernel 1 '_Z11kmeansPointPfiiiPiS_S_S0_'
GPGPU-Sim uArch: core:  3, cta: 0 initialized @(1,0)
GPGPU-Sim uArch: Shader 4 bind to kernel 1 '_Z11kmeansPointPfiiiPiS_S_S0_'
GPGPU-Sim uArch: core:  4, cta: 0 initialized @(1,0)
GPGPU-Sim uArch: Shader 5 bind to kernel 1 '_Z11kmeansPointPfiiiPiS_S_S0_'
GPGPU-Sim uArch: core:  5, cta: 0 initialized @(1,0)
GPGPU-Sim uArch: Shader 6 bind to kernel 1 '_Z11kmeansPointPfiiiPiS_S_S0_'
GPGPU-Sim uArch: core:  6, cta: 0 initialized @(1,0)
GPGPU-Sim uArch: Shader 7 bind to kernel 1 '_Z11kmeansPointPfiiiPiS_S_S0_'
GPGPU-Sim uArch: core:  7, cta: 0 initialized @(1,0)
GPGPU-Sim uArch: Shader 8 bind to kernel 1 '_Z11kmeansPointPfiiiPiS_S_S0_'
GPGPU-Sim uArch: core:  8, cta: 0 initialized @(1,0)
GPGPU-Sim uArch: Shader 9 bind to kernel 1 '_Z11kmeansPointPfiiiPiS_S_S0_'
GPGPU-Sim uArch: core:  9, cta: 0 initialized @(1,0)
GPGPU-Sim uArch: Shader 10 bind to kernel 1 '_Z11kmeansPointPfiiiPiS_S_S0_'
GPGPU-Sim uArch: core: 10, cta: 0 initialized @(1,0)
GPGPU-Sim uArch: Shader 11 bind to kernel 1 '_Z11kmeansPointPfiiiPiS_S_S0_'
GPGPU-Sim uArch: core: 11, cta: 0 initialized @(1,0)
GPGPU-Sim uArch: Shader 12 bind to kernel 1 '_Z11kmeansPointPfiiiPiS_S_S0_'
GPGPU-Sim uArch: core: 12, cta: 0 initialized @(1,0)
GPGPU-Sim uArch: Shader 13 bind to kernel 1 '_Z11kmeansPointPfiiiPiS_S_S0_'
GPGPU-Sim uArch: core: 13, cta: 0 initialized @(1,0)
GPGPU-Sim uArch: Shader 14 bind to kernel 1 '_Z11kmeansPointPfiiiPiS_S_S0_'
GPGPU-Sim uArch: core: 14, cta: 0 initialized @(1,0)
GPGPU-Sim uArch: Shader 0 bind to kernel 1 '_Z11kmeansPointPfiiiPiS_S_S0_'
GPGPU-Sim uArch: core:  0, cta: 0 initialized @(1,0)
GPGPU-Sim uArch: core:  1, cta: 1 initialized @(2,0)
GPGPU-Sim uArch: core:  2, cta: 1 initialized @(2,0)
GPGPU-Sim uArch: core:  3, cta: 1 initialized @(2,0)
GPGPU-Sim uArch: core:  4, cta: 1 initialized @(2,0)
GPGPU-Sim uArch: core:  5, cta: 1 initialized @(2,0)
GPGPU-Sim uArch: core:  6, cta: 1 initialized @(2,0)
GPGPU-Sim uArch: core:  7, cta: 1 initialized @(2,0)
GPGPU-Sim uArch: core:  8, cta: 1 initialized @(2,0)
GPGPU-Sim uArch: core:  9, cta: 1 initialized @(2,0)
GPGPU-Sim uArch: core: 10, cta: 1 initialized @(2,0)
GPGPU-Sim uArch: core: 11, cta: 1 initialized @(2,0)
GPGPU-Sim uArch: core: 12, cta: 1 initialized @(2,0)
GPGPU-Sim uArch: core: 13, cta: 1 initialized @(2,0)
GPGPU-Sim uArch: core: 14, cta: 1 initialized @(2,0)
GPGPU-Sim uArch: core:  0, cta: 1 initialized @(2,0)
GPGPU-Sim uArch: core:  1, cta: 2 initialized @(3,0)
GPGPU-Sim uArch: core:  2, cta: 2 initialized @(3,0)
GPGPU-Sim uArch: core:  3, cta: 2 initialized @(3,0)
GPGPU-Sim uArch: core:  4, cta: 2 initialized @(3,0)
GPGPU-Sim uArch: core:  5, cta: 2 initialized @(3,0)
GPGPU-Sim uArch: core:  6, cta: 2 initialized @(3,0)
GPGPU-Sim uArch: core:  7, cta: 2 initialized @(3,0)
GPGPU-Sim uArch: core:  8, cta: 2 initialized @(3,0)
GPGPU-Sim uArch: core:  9, cta: 2 initialized @(3,0)
GPGPU-Sim uArch: core: 10, cta: 2 initialized @(3,0)
GPGPU-Sim uArch: core: 11, cta: 2 initialized @(3,0)
GPGPU-Sim uArch: core: 12, cta: 2 initialized @(3,0)
GPGPU-Sim uArch: core: 13, cta: 2 initialized @(3,0)
GPGPU-Sim uArch: core: 14, cta: 2 initialized @(3,0)
GPGPU-Sim uArch: core:  0, cta: 2 initialized @(3,0)
GPGPU-Sim uArch: core:  1, cta: 3 initialized @(4,0)
GPGPU-Sim uArch: core:  2, cta: 3 initialized @(4,0)
GPGPU-Sim uArch: core:  3, cta: 3 initialized @(4,0)
GPGPU-Sim uArch: core:  4, cta: 3 initialized @(4,0)
GPGPU-Sim uArch: core:  5, cta: 3 initialized @(4,0)
GPGPU-Sim uArch: core:  6, cta: 3 initialized @(4,0)
GPGPU-Sim uArch: core:  7, cta: 3 initialized @(4,0)
GPGPU-Sim uArch: core:  8, cta: 3 initialized @(4,0)
GPGPU-Sim uArch: core:  9, cta: 3 initialized @(4,0)
GPGPU-Sim uArch: core: 10, cta: 3 initialized @(4,0)
GPGPU-Sim uArch: core: 11, cta: 3 initialized @(4,0)
GPGPU-Sim uArch: core: 12, cta: 3 initialized @(4,0)
GPGPU-Sim uArch: core: 13, cta: 3 initialized @(4,0)
GPGPU-Sim uArch: core: 14, cta: 3 initialized @(4,0)
GPGPU-Sim uArch: core:  0, cta: 3 initialized @(4,0)
GPGPU-Sim uArch: core:  1, cta: 4 initialized @(5,0)
GPGPU-Sim uArch: core:  2, cta: 4 initialized @(5,0)
GPGPU-Sim uArch: core:  3, cta: 4 initialized @(5,0)
GPGPU-Sim uArch: core:  4, cta: 4 initialized @(5,0)
GPGPU-Sim uArch: core:  5, cta: 4 initialized @(5,0)
GPGPU-Sim uArch: core:  6, cta: 4 initialized @(5,0)
GPGPU-Sim uArch: core:  7, cta: 4 initialized @(5,0)
GPGPU-Sim uArch: core:  8, cta: 4 initialized @(5,0)
GPGPU-Sim uArch: core:  9, cta: 4 initialized @(5,0)
GPGPU-Sim uArch: core: 10, cta: 4 initialized @(5,0)
GPGPU-Sim uArch: core: 11, cta: 4 initialized @(5,0)
GPGPU-Sim uArch: core: 12, cta: 4 initialized @(5,0)
GPGPU-Sim uArch: core: 13, cta: 4 initialized @(5,0)
GPGPU-Sim uArch: core: 14, cta: 4 initialized @(5,0)
GPGPU-Sim uArch: core:  0, cta: 4 initialized @(5,0)
GPGPU-Sim uArch: core:  1, cta: 5 initialized @(6,0)
GPGPU-Sim uArch: core:  2, cta: 5 initialized @(6,0)
GPGPU-Sim uArch: core:  3, cta: 5 initialized @(6,0)
GPGPU-Sim uArch: core:  4, cta: 5 initialized @(6,0)
GPGPU-Sim uArch: core:  5, cta: 5 initialized @(6,0)
GPGPU-Sim uArch: core:  6, cta: 5 initialized @(6,0)
GPGPU-Sim uArch: core:  7, cta: 5 initialized @(6,0)
GPGPU-Sim uArch: core:  8, cta: 5 initialized @(6,0)
GPGPU-Sim uArch: core:  9, cta: 5 initialized @(6,0)
GPGPU-Sim uArch: core: 10, cta: 5 initialized @(6,0)
GPGPU-Sim uArch: core: 11, cta: 5 initialized @(6,0)
GPGPU-Sim uArch: core: 12, cta: 5 initialized @(6,0)
GPGPU-Sim uArch: core: 13, cta: 5 initialized @(6,0)
GPGPU-Sim uArch: core: 14, cta: 5 initialized @(6,0)
GPGPU-Sim uArch: core:  0, cta: 5 initialized @(6,0)
GPGPU-Sim PTX: 100000 instructions simulated : ctaid=(7,7,0) tid=(159,0,0)
GPGPU-Sim uArch: cycles simulated: 500  inst.: 147456 (ipc=294.9) sim_rate=73728 (inst/sec) elapsed = 0:0:00:02 / Wed Apr 17 12:22:53 2019
GPGPU-Sim PTX: 200000 instructions simulated : ctaid=(2,2,0) tid=(223,0,0)
GPGPU-Sim PTX: 300000 instructions simulated : ctaid=(3,5,0) tid=(255,0,0)
GPGPU-Sim PTX: 400000 instructions simulated : ctaid=(9,7,0) tid=(191,0,0)
GPGPU-Sim PTX: 500000 instructions simulated : ctaid=(9,4,0) tid=(191,0,0)
GPGPU-Sim PTX: 600000 instructions simulated : ctaid=(3,5,0) tid=(223,0,0)
GPGPU-Sim uArch: cycles simulated: 1500  inst.: 615616 (ipc=410.4) sim_rate=205205 (inst/sec) elapsed = 0:0:00:03 / Wed Apr 17 12:22:54 2019
GPGPU-Sim PTX: 700000 instructions simulated : ctaid=(1,4,0) tid=(159,0,0)
GPGPU-Sim PTX: 800000 instructions simulated : ctaid=(4,5,0) tid=(31,0,0)
GPGPU-Sim PTX: 900000 instructions simulated : ctaid=(2,1,0) tid=(191,0,0)
GPGPU-Sim uArch: cycles simulated: 2000  inst.: 850304 (ipc=425.2) sim_rate=212576 (inst/sec) elapsed = 0:0:00:04 / Wed Apr 17 12:22:55 2019
GPGPU-Sim uArch: cycles simulated: 4000  inst.: 865024 (ipc=216.3) sim_rate=173004 (inst/sec) elapsed = 0:0:00:05 / Wed Apr 17 12:22:56 2019
GPGPU-Sim uArch: cycles simulated: 6000  inst.: 912160 (ipc=152.0) sim_rate=152026 (inst/sec) elapsed = 0:0:00:06 / Wed Apr 17 12:22:57 2019
GPGPU-Sim PTX: 1000000 instructions simulated : ctaid=(10,0,0) tid=(95,0,0)
GPGPU-Sim uArch: cycles simulated: 7500  inst.: 974528 (ipc=129.9) sim_rate=139218 (inst/sec) elapsed = 0:0:00:07 / Wed Apr 17 12:22:58 2019
GPGPU-Sim PTX: 1100000 instructions simulated : ctaid=(10,2,0) tid=(31,0,0)
GPGPU-Sim uArch: cycles simulated: 9500  inst.: 1086848 (ipc=114.4) sim_rate=135856 (inst/sec) elapsed = 0:0:00:08 / Wed Apr 17 12:22:59 2019
GPGPU-Sim PTX: 1200000 instructions simulated : ctaid=(9,0,0) tid=(223,0,0)
GPGPU-Sim uArch: cycles simulated: 11000  inst.: 1178848 (ipc=107.2) sim_rate=130983 (inst/sec) elapsed = 0:0:00:09 / Wed Apr 17 12:23:00 2019
GPGPU-Sim PTX: 1300000 instructions simulated : ctaid=(8,1,0) tid=(31,0,0)
GPGPU-Sim uArch: cycles simulated: 12500  inst.: 1274304 (ipc=101.9) sim_rate=127430 (inst/sec) elapsed = 0:0:00:10 / Wed Apr 17 12:23:01 2019
GPGPU-Sim PTX: 1400000 instructions simulated : ctaid=(8,0,0) tid=(95,0,0)
GPGPU-Sim uArch: cycles simulated: 14000  inst.: 1373440 (ipc=98.1) sim_rate=124858 (inst/sec) elapsed = 0:0:00:11 / Wed Apr 17 12:23:02 2019
GPGPU-Sim PTX: 1500000 instructions simulated : ctaid=(0,2,0) tid=(159,0,0)
GPGPU-Sim uArch: cycles simulated: 15500  inst.: 1484480 (ipc=95.8) sim_rate=123706 (inst/sec) elapsed = 0:0:00:12 / Wed Apr 17 12:23:03 2019
GPGPU-Sim PTX: 1600000 instructions simulated : ctaid=(2,0,0) tid=(127,0,0)
GPGPU-Sim uArch: cycles simulated: 17000  inst.: 1602560 (ipc=94.3) sim_rate=123273 (inst/sec) elapsed = 0:0:00:13 / Wed Apr 17 12:23:04 2019
GPGPU-Sim PTX: 1700000 instructions simulated : ctaid=(0,4,0) tid=(95,0,0)
GPGPU-Sim uArch: cycles simulated: 18000  inst.: 1672928 (ipc=92.9) sim_rate=119494 (inst/sec) elapsed = 0:0:00:14 / Wed Apr 17 12:23:05 2019
GPGPU-Sim PTX: 1800000 instructions simulated : ctaid=(4,2,0) tid=(159,0,0)
GPGPU-Sim uArch: cycles simulated: 19500  inst.: 1780736 (ipc=91.3) sim_rate=118715 (inst/sec) elapsed = 0:0:00:15 / Wed Apr 17 12:23:06 2019
GPGPU-Sim PTX: 1900000 instructions simulated : ctaid=(6,0,0) tid=(159,0,0)
GPGPU-Sim uArch: cycles simulated: 21000  inst.: 1877792 (ipc=89.4) sim_rate=117362 (inst/sec) elapsed = 0:0:00:16 / Wed Apr 17 12:23:07 2019
GPGPU-Sim PTX: 2000000 instructions simulated : ctaid=(2,2,0) tid=(95,0,0)
GPGPU-Sim uArch: cycles simulated: 22500  inst.: 1970016 (ipc=87.6) sim_rate=115883 (inst/sec) elapsed = 0:0:00:17 / Wed Apr 17 12:23:08 2019
GPGPU-Sim PTX: 2100000 instructions simulated : ctaid=(7,0,0) tid=(31,0,0)
GPGPU-Sim uArch: cycles simulated: 23500  inst.: 2048608 (ipc=87.2) sim_rate=113811 (inst/sec) elapsed = 0:0:00:18 / Wed Apr 17 12:23:09 2019
GPGPU-Sim PTX: 2200000 instructions simulated : ctaid=(10,3,0) tid=(31,0,0)
GPGPU-Sim uArch: cycles simulated: 25000  inst.: 2151584 (ipc=86.1) sim_rate=113241 (inst/sec) elapsed = 0:0:00:19 / Wed Apr 17 12:23:10 2019
GPGPU-Sim PTX: 2300000 instructions simulated : ctaid=(2,0,0) tid=(31,0,0)
GPGPU-Sim uArch: cycles simulated: 26500  inst.: 2263296 (ipc=85.4) sim_rate=113164 (inst/sec) elapsed = 0:0:00:20 / Wed Apr 17 12:23:11 2019
GPGPU-Sim PTX: 2400000 instructions simulated : ctaid=(1,3,0) tid=(31,0,0)
GPGPU-Sim uArch: cycles simulated: 28000  inst.: 2359360 (ipc=84.3) sim_rate=112350 (inst/sec) elapsed = 0:0:00:21 / Wed Apr 17 12:23:12 2019
GPGPU-Sim PTX: 2500000 instructions simulated : ctaid=(3,0,0) tid=(95,0,0)
GPGPU-Sim uArch: cycles simulated: 29000  inst.: 2438144 (ipc=84.1) sim_rate=110824 (inst/sec) elapsed = 0:0:00:22 / Wed Apr 17 12:23:13 2019
GPGPU-Sim PTX: 2600000 instructions simulated : ctaid=(0,0,0) tid=(95,0,0)
GPGPU-Sim uArch: cycles simulated: 30500  inst.: 2537120 (ipc=83.2) sim_rate=110309 (inst/sec) elapsed = 0:0:00:23 / Wed Apr 17 12:23:14 2019
GPGPU-Sim PTX: 2700000 instructions simulated : ctaid=(5,3,0) tid=(31,0,0)
GPGPU-Sim uArch: cycles simulated: 32000  inst.: 2639520 (ipc=82.5) sim_rate=109980 (inst/sec) elapsed = 0:0:00:24 / Wed Apr 17 12:23:15 2019
GPGPU-Sim PTX: 2800000 instructions simulated : ctaid=(1,1,0) tid=(127,0,0)
GPGPU-Sim uArch: cycles simulated: 33500  inst.: 2745888 (ipc=82.0) sim_rate=109835 (inst/sec) elapsed = 0:0:00:25 / Wed Apr 17 12:23:16 2019
GPGPU-Sim PTX: 2900000 instructions simulated : ctaid=(0,1,0) tid=(31,0,0)
GPGPU-Sim uArch: cycles simulated: 35000  inst.: 2851776 (ipc=81.5) sim_rate=109683 (inst/sec) elapsed = 0:0:00:26 / Wed Apr 17 12:23:17 2019
GPGPU-Sim PTX: 3000000 instructions simulated : ctaid=(4,1,0) tid=(223,0,0)
GPGPU-Sim uArch: cycles simulated: 36500  inst.: 2971520 (ipc=81.4) sim_rate=110056 (inst/sec) elapsed = 0:0:00:27 / Wed Apr 17 12:23:18 2019
GPGPU-Sim PTX: 3100000 instructions simulated : ctaid=(7,2,0) tid=(159,0,0)
GPGPU-Sim uArch: cycles simulated: 38000  inst.: 3086080 (ipc=81.2) sim_rate=110217 (inst/sec) elapsed = 0:0:00:28 / Wed Apr 17 12:23:19 2019
GPGPU-Sim PTX: 3200000 instructions simulated : ctaid=(4,1,0) tid=(31,0,0)
GPGPU-Sim uArch: cycles simulated: 39500  inst.: 3192576 (ipc=80.8) sim_rate=110088 (inst/sec) elapsed = 0:0:00:29 / Wed Apr 17 12:23:20 2019
GPGPU-Sim PTX: 3300000 instructions simulated : ctaid=(4,1,0) tid=(95,0,0)
GPGPU-Sim uArch: cycles simulated: 40500  inst.: 3244640 (ipc=80.1) sim_rate=108154 (inst/sec) elapsed = 0:0:00:30 / Wed Apr 17 12:23:21 2019
GPGPU-Sim PTX: 3400000 instructions simulated : ctaid=(4,0,0) tid=(95,0,0)
GPGPU-Sim uArch: cycles simulated: 42000  inst.: 3352160 (ipc=79.8) sim_rate=108134 (inst/sec) elapsed = 0:0:00:31 / Wed Apr 17 12:23:22 2019
GPGPU-Sim PTX: 3500000 instructions simulated : ctaid=(10,1,0) tid=(159,0,0)
GPGPU-Sim uArch: cycles simulated: 43500  inst.: 3438752 (ipc=79.1) sim_rate=107461 (inst/sec) elapsed = 0:0:00:32 / Wed Apr 17 12:23:23 2019
GPGPU-Sim PTX: 3600000 instructions simulated : ctaid=(4,2,0) tid=(159,0,0)
GPGPU-Sim uArch: cycles simulated: 45000  inst.: 3537344 (ipc=78.6) sim_rate=107192 (inst/sec) elapsed = 0:0:00:33 / Wed Apr 17 12:23:24 2019
GPGPU-Sim PTX: 3700000 instructions simulated : ctaid=(2,2,0) tid=(31,0,0)
GPGPU-Sim uArch: cycles simulated: 46500  inst.: 3632224 (ipc=78.1) sim_rate=106830 (inst/sec) elapsed = 0:0:00:34 / Wed Apr 17 12:23:25 2019
GPGPU-Sim PTX: 3800000 instructions simulated : ctaid=(0,1,0) tid=(31,0,0)
GPGPU-Sim uArch: cycles simulated: 48000  inst.: 3727264 (ipc=77.7) sim_rate=106493 (inst/sec) elapsed = 0:0:00:35 / Wed Apr 17 12:23:26 2019
GPGPU-Sim PTX: 3900000 instructions simulated : ctaid=(10,0,0) tid=(159,0,0)
GPGPU-Sim uArch: cycles simulated: 50000  inst.: 3863392 (ipc=77.3) sim_rate=107316 (inst/sec) elapsed = 0:0:00:36 / Wed Apr 17 12:23:27 2019
GPGPU-Sim PTX: 4000000 instructions simulated : ctaid=(10,0,0) tid=(63,0,0)
GPGPU-Sim uArch: cycles simulated: 51500  inst.: 3954208 (ipc=76.8) sim_rate=106870 (inst/sec) elapsed = 0:0:00:37 / Wed Apr 17 12:23:28 2019
GPGPU-Sim PTX: 4100000 instructions simulated : ctaid=(3,3,0) tid=(31,0,0)
GPGPU-Sim uArch: cycles simulated: 53000  inst.: 4051328 (ipc=76.4) sim_rate=106613 (inst/sec) elapsed = 0:0:00:38 / Wed Apr 17 12:23:29 2019
GPGPU-Sim PTX: 4200000 instructions simulated : ctaid=(1,2,0) tid=(223,0,0)
GPGPU-Sim uArch: cycles simulated: 54500  inst.: 4154816 (ipc=76.2) sim_rate=106533 (inst/sec) elapsed = 0:0:00:39 / Wed Apr 17 12:23:30 2019
GPGPU-Sim PTX: 4300000 instructions simulated : ctaid=(0,1,0) tid=(223,0,0)
GPGPU-Sim uArch: cycles simulated: 56000  inst.: 4244160 (ipc=75.8) sim_rate=106104 (inst/sec) elapsed = 0:0:00:40 / Wed Apr 17 12:23:31 2019
GPGPU-Sim PTX: 4400000 instructions simulated : ctaid=(4,1,0) tid=(159,0,0)
GPGPU-Sim uArch: cycles simulated: 57500  inst.: 4343968 (ipc=75.5) sim_rate=105950 (inst/sec) elapsed = 0:0:00:41 / Wed Apr 17 12:23:32 2019
GPGPU-Sim PTX: 4500000 instructions simulated : ctaid=(2,2,0) tid=(31,0,0)
GPGPU-Sim uArch: cycles simulated: 59000  inst.: 4438240 (ipc=75.2) sim_rate=105672 (inst/sec) elapsed = 0:0:00:42 / Wed Apr 17 12:23:33 2019
GPGPU-Sim PTX: 4600000 instructions simulated : ctaid=(4,2,0) tid=(31,0,0)
GPGPU-Sim uArch: cycles simulated: 60500  inst.: 4540480 (ipc=75.0) sim_rate=105592 (inst/sec) elapsed = 0:0:00:43 / Wed Apr 17 12:23:34 2019
GPGPU-Sim PTX: 4700000 instructions simulated : ctaid=(6,0,0) tid=(63,0,0)
GPGPU-Sim uArch: cycles simulated: 62000  inst.: 4632704 (ipc=74.7) sim_rate=105288 (inst/sec) elapsed = 0:0:00:44 / Wed Apr 17 12:23:35 2019
GPGPU-Sim PTX: 4800000 instructions simulated : ctaid=(1,2,0) tid=(159,0,0)
GPGPU-Sim uArch: cycles simulated: 63500  inst.: 4728800 (ipc=74.5) sim_rate=105084 (inst/sec) elapsed = 0:0:00:45 / Wed Apr 17 12:23:36 2019
GPGPU-Sim uArch: cycles simulated: 65000  inst.: 4822560 (ipc=74.2) sim_rate=104838 (inst/sec) elapsed = 0:0:00:46 / Wed Apr 17 12:23:37 2019
GPGPU-Sim PTX: 4900000 instructions simulated : ctaid=(9,2,0) tid=(159,0,0)
GPGPU-Sim PTX: 5000000 instructions simulated : ctaid=(1,1,0) tid=(95,0,0)
GPGPU-Sim uArch: cycles simulated: 67000  inst.: 4952960 (ipc=73.9) sim_rate=105382 (inst/sec) elapsed = 0:0:00:47 / Wed Apr 17 12:23:38 2019
GPGPU-Sim PTX: 5100000 instructions simulated : ctaid=(4,1,0) tid=(159,0,0)
GPGPU-Sim uArch: cycles simulated: 68500  inst.: 5046560 (ipc=73.7) sim_rate=105136 (inst/sec) elapsed = 0:0:00:48 / Wed Apr 17 12:23:39 2019
GPGPU-Sim PTX: 5200000 instructions simulated : ctaid=(9,3,0) tid=(95,0,0)
GPGPU-Sim uArch: cycles simulated: 70000  inst.: 5133056 (ipc=73.3) sim_rate=104756 (inst/sec) elapsed = 0:0:00:49 / Wed Apr 17 12:23:40 2019
GPGPU-Sim PTX: 5300000 instructions simulated : ctaid=(5,1,0) tid=(223,0,0)
GPGPU-Sim uArch: cycles simulated: 71500  inst.: 5233824 (ipc=73.2) sim_rate=104676 (inst/sec) elapsed = 0:0:00:50 / Wed Apr 17 12:23:41 2019
GPGPU-Sim uArch: cycles simulated: 72500  inst.: 5303200 (ipc=73.1) sim_rate=103984 (inst/sec) elapsed = 0:0:00:51 / Wed Apr 17 12:23:42 2019
GPGPU-Sim PTX: 5400000 instructions simulated : ctaid=(4,2,0) tid=(159,0,0)
GPGPU-Sim uArch: cycles simulated: 74000  inst.: 5410464 (ipc=73.1) sim_rate=104047 (inst/sec) elapsed = 0:0:00:52 / Wed Apr 17 12:23:43 2019
GPGPU-Sim PTX: 5500000 instructions simulated : ctaid=(0,4,0) tid=(95,0,0)
GPGPU-Sim uArch: cycles simulated: 75500  inst.: 5511136 (ipc=73.0) sim_rate=103983 (inst/sec) elapsed = 0:0:00:53 / Wed Apr 17 12:23:44 2019
GPGPU-Sim PTX: 5600000 instructions simulated : ctaid=(8,0,0) tid=(63,0,0)
GPGPU-Sim PTX: 5700000 instructions simulated : ctaid=(6,0,0) tid=(223,0,0)
GPGPU-Sim uArch: cycles simulated: 77500  inst.: 5649632 (ipc=72.9) sim_rate=104622 (inst/sec) elapsed = 0:0:00:54 / Wed Apr 17 12:23:45 2019
GPGPU-Sim PTX: 5800000 instructions simulated : ctaid=(4,0,0) tid=(223,0,0)
GPGPU-Sim uArch: cycles simulated: 79000  inst.: 5744480 (ipc=72.7) sim_rate=104445 (inst/sec) elapsed = 0:0:00:55 / Wed Apr 17 12:23:46 2019
GPGPU-Sim PTX: 5900000 instructions simulated : ctaid=(0,1,0) tid=(159,0,0)
GPGPU-Sim uArch: cycles simulated: 80500  inst.: 5838208 (ipc=72.5) sim_rate=104253 (inst/sec) elapsed = 0:0:00:56 / Wed Apr 17 12:23:47 2019
GPGPU-Sim PTX: 6000000 instructions simulated : ctaid=(3,1,0) tid=(95,0,0)
GPGPU-Sim uArch: cycles simulated: 82000  inst.: 5936320 (ipc=72.4) sim_rate=104145 (inst/sec) elapsed = 0:0:00:57 / Wed Apr 17 12:23:48 2019
GPGPU-Sim PTX: 6100000 instructions simulated : ctaid=(2,1,0) tid=(223,0,0)
GPGPU-Sim uArch: cycles simulated: 83500  inst.: 6029632 (ipc=72.2) sim_rate=103959 (inst/sec) elapsed = 0:0:00:58 / Wed Apr 17 12:23:49 2019
GPGPU-Sim uArch: cycles simulated: 85000  inst.: 6123744 (ipc=72.0) sim_rate=103792 (inst/sec) elapsed = 0:0:00:59 / Wed Apr 17 12:23:50 2019
GPGPU-Sim PTX: 6200000 instructions simulated : ctaid=(7,0,0) tid=(223,0,0)
GPGPU-Sim PTX: 6300000 instructions simulated : ctaid=(6,0,0) tid=(95,0,0)
GPGPU-Sim uArch: cycles simulated: 86500  inst.: 6228480 (ipc=72.0) sim_rate=103808 (inst/sec) elapsed = 0:0:01:00 / Wed Apr 17 12:23:51 2019
GPGPU-Sim uArch: cycles simulated: 88000  inst.: 6322144 (ipc=71.8) sim_rate=103641 (inst/sec) elapsed = 0:0:01:01 / Wed Apr 17 12:23:52 2019
GPGPU-Sim PTX: 6400000 instructions simulated : ctaid=(1,1,0) tid=(159,0,0)
GPGPU-Sim PTX: 6500000 instructions simulated : ctaid=(3,3,0) tid=(95,0,0)
GPGPU-Sim uArch: cycles simulated: 89500  inst.: 6429536 (ipc=71.8) sim_rate=103702 (inst/sec) elapsed = 0:0:01:02 / Wed Apr 17 12:23:53 2019
GPGPU-Sim PTX: 6600000 instructions simulated : ctaid=(10,0,0) tid=(31,0,0)
GPGPU-Sim uArch: cycles simulated: 91000  inst.: 6534944 (ipc=71.8) sim_rate=103729 (inst/sec) elapsed = 0:0:01:03 / Wed Apr 17 12:23:54 2019
GPGPU-Sim PTX: 6700000 instructions simulated : ctaid=(3,1,0) tid=(95,0,0)
GPGPU-Sim uArch: cycles simulated: 92500  inst.: 6640576 (ipc=71.8) sim_rate=103759 (inst/sec) elapsed = 0:0:01:04 / Wed Apr 17 12:23:55 2019
GPGPU-Sim PTX: 6800000 instructions simulated : ctaid=(1,1,0) tid=(63,0,0)
GPGPU-Sim uArch: cycles simulated: 94000  inst.: 6755168 (ipc=71.9) sim_rate=103925 (inst/sec) elapsed = 0:0:01:05 / Wed Apr 17 12:23:56 2019
GPGPU-Sim PTX: 6900000 instructions simulated : ctaid=(6,1,0) tid=(31,0,0)
GPGPU-Sim uArch: cycles simulated: 95500  inst.: 6861312 (ipc=71.8) sim_rate=103959 (inst/sec) elapsed = 0:0:01:06 / Wed Apr 17 12:23:57 2019
GPGPU-Sim PTX: 7000000 instructions simulated : ctaid=(8,0,0) tid=(159,0,0)
GPGPU-Sim uArch: cycles simulated: 97000  inst.: 6970112 (ipc=71.9) sim_rate=104031 (inst/sec) elapsed = 0:0:01:07 / Wed Apr 17 12:23:58 2019
GPGPU-Sim PTX: 7100000 instructions simulated : ctaid=(5,2,0) tid=(159,0,0)
GPGPU-Sim uArch: cycles simulated: 98500  inst.: 7084000 (ipc=71.9) sim_rate=104176 (inst/sec) elapsed = 0:0:01:08 / Wed Apr 17 12:23:59 2019
GPGPU-Sim PTX: 7200000 instructions simulated : ctaid=(3,1,0) tid=(31,0,0)
GPGPU-Sim uArch: cycles simulated: 100000  inst.: 7188320 (ipc=71.9) sim_rate=104178 (inst/sec) elapsed = 0:0:01:09 / Wed Apr 17 12:24:00 2019
GPGPU-Sim PTX: 7300000 instructions simulated : ctaid=(6,2,0) tid=(223,0,0)
GPGPU-Sim uArch: cycles simulated: 101500  inst.: 7299328 (ipc=71.9) sim_rate=104276 (inst/sec) elapsed = 0:0:01:10 / Wed Apr 17 12:24:01 2019
GPGPU-Sim PTX: 7400000 instructions simulated : ctaid=(0,0,0) tid=(95,0,0)
GPGPU-Sim uArch: cycles simulated: 103000  inst.: 7415168 (ipc=72.0) sim_rate=104438 (inst/sec) elapsed = 0:0:01:11 / Wed Apr 17 12:24:02 2019
GPGPU-Sim PTX: 7500000 instructions simulated : ctaid=(4,2,0) tid=(31,0,0)
GPGPU-Sim uArch: cycles simulated: 104500  inst.: 7517376 (ipc=71.9) sim_rate=104408 (inst/sec) elapsed = 0:0:01:12 / Wed Apr 17 12:24:03 2019
GPGPU-Sim PTX: 7600000 instructions simulated : ctaid=(9,0,0) tid=(31,0,0)
GPGPU-Sim PTX: 7700000 instructions simulated : ctaid=(6,0,0) tid=(159,0,0)
GPGPU-Sim uArch: cycles simulated: 106000  inst.: 7628352 (ipc=72.0) sim_rate=104497 (inst/sec) elapsed = 0:0:01:13 / Wed Apr 17 12:24:04 2019
GPGPU-Sim PTX: 7800000 instructions simulated : ctaid=(0,2,0) tid=(95,0,0)
GPGPU-Sim uArch: cycles simulated: 107500  inst.: 7754080 (ipc=72.1) sim_rate=104784 (inst/sec) elapsed = 0:0:01:14 / Wed Apr 17 12:24:05 2019
GPGPU-Sim PTX: 7900000 instructions simulated : ctaid=(8,0,0) tid=(95,0,0)
GPGPU-Sim uArch: cycles simulated: 109000  inst.: 7868192 (ipc=72.2) sim_rate=104909 (inst/sec) elapsed = 0:0:01:15 / Wed Apr 17 12:24:06 2019
GPGPU-Sim PTX: 8000000 instructions simulated : ctaid=(3,1,0) tid=(63,0,0)
GPGPU-Sim uArch: cycles simulated: 110500  inst.: 7972192 (ipc=72.1) sim_rate=104897 (inst/sec) elapsed = 0:0:01:16 / Wed Apr 17 12:24:07 2019
GPGPU-Sim PTX: 8100000 instructions simulated : ctaid=(0,1,0) tid=(31,0,0)
GPGPU-Sim uArch: cycles simulated: 112000  inst.: 8080160 (ipc=72.1) sim_rate=104937 (inst/sec) elapsed = 0:0:01:17 / Wed Apr 17 12:24:08 2019
GPGPU-Sim PTX: 8200000 instructions simulated : ctaid=(10,0,0) tid=(159,0,0)
GPGPU-Sim uArch: cycles simulated: 113500  inst.: 8188352 (ipc=72.1) sim_rate=104978 (inst/sec) elapsed = 0:0:01:18 / Wed Apr 17 12:24:09 2019
GPGPU-Sim PTX: 8300000 instructions simulated : ctaid=(10,2,0) tid=(159,0,0)
GPGPU-Sim uArch: cycles simulated: 115000  inst.: 8311808 (ipc=72.3) sim_rate=105212 (inst/sec) elapsed = 0:0:01:19 / Wed Apr 17 12:24:10 2019
GPGPU-Sim PTX: 8400000 instructions simulated : ctaid=(4,1,0) tid=(223,0,0)
GPGPU-Sim uArch: cycles simulated: 116500  inst.: 8423328 (ipc=72.3) sim_rate=105291 (inst/sec) elapsed = 0:0:01:20 / Wed Apr 17 12:24:11 2019
GPGPU-Sim PTX: 8500000 instructions simulated : ctaid=(6,2,0) tid=(95,0,0)
GPGPU-Sim uArch: cycles simulated: 117500  inst.: 8508768 (ipc=72.4) sim_rate=105046 (inst/sec) elapsed = 0:0:01:21 / Wed Apr 17 12:24:12 2019
GPGPU-Sim PTX: 8600000 instructions simulated : ctaid=(3,0,0) tid=(159,0,0)
GPGPU-Sim uArch: cycles simulated: 119000  inst.: 8614880 (ipc=72.4) sim_rate=105059 (inst/sec) elapsed = 0:0:01:22 / Wed Apr 17 12:24:13 2019
GPGPU-Sim PTX: 8700000 instructions simulated : ctaid=(7,2,0) tid=(95,0,0)
GPGPU-Sim uArch: cycles simulated: 120500  inst.: 8719296 (ipc=72.4) sim_rate=105051 (inst/sec) elapsed = 0:0:01:23 / Wed Apr 17 12:24:14 2019
GPGPU-Sim PTX: 8800000 instructions simulated : ctaid=(6,2,0) tid=(159,0,0)
GPGPU-Sim PTX: 8900000 instructions simulated : ctaid=(2,0,0) tid=(31,0,0)
GPGPU-Sim uArch: cycles simulated: 122000  inst.: 8829184 (ipc=72.4) sim_rate=105109 (inst/sec) elapsed = 0:0:01:24 / Wed Apr 17 12:24:15 2019
GPGPU-Sim PTX: 9000000 instructions simulated : ctaid=(6,1,0) tid=(95,0,0)
GPGPU-Sim uArch: cycles simulated: 123500  inst.: 8941152 (ipc=72.4) sim_rate=105190 (inst/sec) elapsed = 0:0:01:25 / Wed Apr 17 12:24:16 2019
GPGPU-Sim PTX: 9100000 instructions simulated : ctaid=(10,0,0) tid=(31,0,0)
GPGPU-Sim uArch: cycles simulated: 125000  inst.: 9055776 (ipc=72.4) sim_rate=105299 (inst/sec) elapsed = 0:0:01:26 / Wed Apr 17 12:24:17 2019
GPGPU-Sim PTX: 9200000 instructions simulated : ctaid=(6,0,0) tid=(159,0,0)
GPGPU-Sim uArch: cycles simulated: 127000  inst.: 9206176 (ipc=72.5) sim_rate=105818 (inst/sec) elapsed = 0:0:01:27 / Wed Apr 17 12:24:18 2019
GPGPU-Sim PTX: 9300000 instructions simulated : ctaid=(8,3,0) tid=(223,0,0)
GPGPU-Sim uArch: cycles simulated: 128500  inst.: 9316352 (ipc=72.5) sim_rate=105867 (inst/sec) elapsed = 0:0:01:28 / Wed Apr 17 12:24:19 2019
GPGPU-Sim PTX: 9400000 instructions simulated : ctaid=(0,0,0) tid=(223,0,0)
GPGPU-Sim uArch: cycles simulated: 130000  inst.: 9412352 (ipc=72.4) sim_rate=105756 (inst/sec) elapsed = 0:0:01:29 / Wed Apr 17 12:24:20 2019
GPGPU-Sim PTX: 9500000 instructions simulated : ctaid=(2,3,0) tid=(223,0,0)
GPGPU-Sim uArch: cycles simulated: 131500  inst.: 9520352 (ipc=72.4) sim_rate=105781 (inst/sec) elapsed = 0:0:01:30 / Wed Apr 17 12:24:21 2019
GPGPU-Sim PTX: 9600000 instructions simulated : ctaid=(6,2,0) tid=(159,0,0)
GPGPU-Sim uArch: cycles simulated: 132500  inst.: 9599104 (ipc=72.4) sim_rate=105484 (inst/sec) elapsed = 0:0:01:31 / Wed Apr 17 12:24:22 2019
GPGPU-Sim PTX: 9700000 instructions simulated : ctaid=(1,0,0) tid=(31,0,0)
GPGPU-Sim uArch: cycles simulated: 134000  inst.: 9710400 (ipc=72.5) sim_rate=105547 (inst/sec) elapsed = 0:0:01:32 / Wed Apr 17 12:24:23 2019
GPGPU-Sim PTX: 9800000 instructions simulated : ctaid=(7,1,0) tid=(223,0,0)
GPGPU-Sim PTX: 9900000 instructions simulated : ctaid=(2,3,0) tid=(31,0,0)
GPGPU-Sim uArch: cycles simulated: 135500  inst.: 9827168 (ipc=72.5) sim_rate=105668 (inst/sec) elapsed = 0:0:01:33 / Wed Apr 17 12:24:24 2019
GPGPU-Sim PTX: 10000000 instructions simulated : ctaid=(4,2,0) tid=(95,0,0)
GPGPU-Sim uArch: cycles simulated: 137000  inst.: 9934816 (ipc=72.5) sim_rate=105689 (inst/sec) elapsed = 0:0:01:34 / Wed Apr 17 12:24:25 2019
GPGPU-Sim PTX: 10100000 instructions simulated : ctaid=(3,1,0) tid=(159,0,0)
GPGPU-Sim uArch: cycles simulated: 138500  inst.: 10033920 (ipc=72.4) sim_rate=105620 (inst/sec) elapsed = 0:0:01:35 / Wed Apr 17 12:24:26 2019
GPGPU-Sim PTX: 10200000 instructions simulated : ctaid=(8,0,0) tid=(223,0,0)
GPGPU-Sim uArch: cycles simulated: 140000  inst.: 10140096 (ipc=72.4) sim_rate=105626 (inst/sec) elapsed = 0:0:01:36 / Wed Apr 17 12:24:27 2019
GPGPU-Sim PTX: 10300000 instructions simulated : ctaid=(2,0,0) tid=(127,0,0)
GPGPU-Sim uArch: cycles simulated: 141500  inst.: 10248672 (ipc=72.4) sim_rate=105656 (inst/sec) elapsed = 0:0:01:37 / Wed Apr 17 12:24:28 2019
GPGPU-Sim PTX: 10400000 instructions simulated : ctaid=(4,1,0) tid=(159,0,0)
GPGPU-Sim uArch: cycles simulated: 143000  inst.: 10380256 (ipc=72.6) sim_rate=105920 (inst/sec) elapsed = 0:0:01:38 / Wed Apr 17 12:24:29 2019
GPGPU-Sim PTX: 10500000 instructions simulated : ctaid=(10,3,0) tid=(31,0,0)
GPGPU-Sim uArch: cycles simulated: 144500  inst.: 10504512 (ipc=72.7) sim_rate=106106 (inst/sec) elapsed = 0:0:01:39 / Wed Apr 17 12:24:30 2019
GPGPU-Sim PTX: 10600000 instructions simulated : ctaid=(8,0,0) tid=(159,0,0)
GPGPU-Sim PTX: 10700000 instructions simulated : ctaid=(9,0,0) tid=(159,0,0)
GPGPU-Sim uArch: cycles simulated: 146000  inst.: 10629792 (ipc=72.8) sim_rate=106297 (inst/sec) elapsed = 0:0:01:40 / Wed Apr 17 12:24:31 2019
GPGPU-Sim PTX: 10800000 instructions simulated : ctaid=(2,0,0) tid=(95,0,0)
GPGPU-Sim uArch: cycles simulated: 147500  inst.: 10733472 (ipc=72.8) sim_rate=106272 (inst/sec) elapsed = 0:0:01:41 / Wed Apr 17 12:24:32 2019
GPGPU-Sim PTX: 10900000 instructions simulated : ctaid=(3,5,0) tid=(95,0,0)
GPGPU-Sim uArch: cycles simulated: 149000  inst.: 10843776 (ipc=72.8) sim_rate=106311 (inst/sec) elapsed = 0:0:01:42 / Wed Apr 17 12:24:33 2019
GPGPU-Sim PTX: 11000000 instructions simulated : ctaid=(9,1,0) tid=(31,0,0)
GPGPU-Sim uArch: cycles simulated: 150500  inst.: 10954048 (ipc=72.8) sim_rate=106349 (inst/sec) elapsed = 0:0:01:43 / Wed Apr 17 12:24:34 2019
GPGPU-Sim PTX: 11100000 instructions simulated : ctaid=(7,0,0) tid=(223,0,0)
GPGPU-Sim uArch: cycles simulated: 151500  inst.: 11037152 (ipc=72.9) sim_rate=106126 (inst/sec) elapsed = 0:0:01:44 / Wed Apr 17 12:24:35 2019
GPGPU-Sim PTX: 11200000 instructions simulated : ctaid=(5,0,0) tid=(159,0,0)
GPGPU-Sim uArch: cycles simulated: 153000  inst.: 11149408 (ipc=72.9) sim_rate=106184 (inst/sec) elapsed = 0:0:01:45 / Wed Apr 17 12:24:36 2019
GPGPU-Sim PTX: 11300000 instructions simulated : ctaid=(7,0,0) tid=(63,0,0)
GPGPU-Sim uArch: cycles simulated: 154500  inst.: 11257600 (ipc=72.9) sim_rate=106203 (inst/sec) elapsed = 0:0:01:46 / Wed Apr 17 12:24:37 2019
GPGPU-Sim PTX: 11400000 instructions simulated : ctaid=(3,4,0) tid=(31,0,0)
GPGPU-Sim uArch: cycles simulated: 156000  inst.: 11378464 (ipc=72.9) sim_rate=106340 (inst/sec) elapsed = 0:0:01:47 / Wed Apr 17 12:24:38 2019
GPGPU-Sim PTX: 11500000 instructions simulated : ctaid=(3,3,0) tid=(31,0,0)
GPGPU-Sim uArch: cycles simulated: 157500  inst.: 11477504 (ipc=72.9) sim_rate=106273 (inst/sec) elapsed = 0:0:01:48 / Wed Apr 17 12:24:39 2019
GPGPU-Sim PTX: 11600000 instructions simulated : ctaid=(5,0,0) tid=(255,0,0)
GPGPU-Sim uArch: cycles simulated: 159000  inst.: 11587680 (ipc=72.9) sim_rate=106308 (inst/sec) elapsed = 0:0:01:49 / Wed Apr 17 12:24:40 2019
GPGPU-Sim PTX: 11700000 instructions simulated : ctaid=(4,0,0) tid=(159,0,0)
GPGPU-Sim uArch: cycles simulated: 160500  inst.: 11701472 (ipc=72.9) sim_rate=106377 (inst/sec) elapsed = 0:0:01:50 / Wed Apr 17 12:24:41 2019
GPGPU-Sim PTX: 11800000 instructions simulated : ctaid=(10,2,0) tid=(95,0,0)
GPGPU-Sim uArch: cycles simulated: 162000  inst.: 11805248 (ipc=72.9) sim_rate=106353 (inst/sec) elapsed = 0:0:01:51 / Wed Apr 17 12:24:42 2019
GPGPU-Sim PTX: 11900000 instructions simulated : ctaid=(1,1,0) tid=(159,0,0)
GPGPU-Sim PTX: 12000000 instructions simulated : ctaid=(0,4,0) tid=(95,0,0)
GPGPU-Sim uArch: cycles simulated: 163500  inst.: 11928576 (ipc=73.0) sim_rate=106505 (inst/sec) elapsed = 0:0:01:52 / Wed Apr 17 12:24:43 2019
GPGPU-Sim PTX: 12100000 instructions simulated : ctaid=(9,0,0) tid=(95,0,0)
GPGPU-Sim uArch: cycles simulated: 165000  inst.: 12040224 (ipc=73.0) sim_rate=106550 (inst/sec) elapsed = 0:0:01:53 / Wed Apr 17 12:24:44 2019
GPGPU-Sim PTX: 12200000 instructions simulated : ctaid=(5,0,0) tid=(63,0,0)
GPGPU-Sim uArch: cycles simulated: 166500  inst.: 12149312 (ipc=73.0) sim_rate=106572 (inst/sec) elapsed = 0:0:01:54 / Wed Apr 17 12:24:45 2019
GPGPU-Sim PTX: 12300000 instructions simulated : ctaid=(9,2,0) tid=(31,0,0)
GPGPU-Sim uArch: cycles simulated: 168000  inst.: 12260448 (ipc=73.0) sim_rate=106612 (inst/sec) elapsed = 0:0:01:55 / Wed Apr 17 12:24:46 2019
GPGPU-Sim PTX: 12400000 instructions simulated : ctaid=(4,3,0) tid=(95,0,0)
GPGPU-Sim uArch: cycles simulated: 169500  inst.: 12375712 (ipc=73.0) sim_rate=106687 (inst/sec) elapsed = 0:0:01:56 / Wed Apr 17 12:24:47 2019
GPGPU-Sim PTX: 12500000 instructions simulated : ctaid=(5,3,0) tid=(31,0,0)
GPGPU-Sim uArch: cycles simulated: 171000  inst.: 12499712 (ipc=73.1) sim_rate=106835 (inst/sec) elapsed = 0:0:01:57 / Wed Apr 17 12:24:48 2019
GPGPU-Sim PTX: 12600000 instructions simulated : ctaid=(1,2,0) tid=(31,0,0)
GPGPU-Sim uArch: cycles simulated: 172500  inst.: 12606176 (ipc=73.1) sim_rate=106832 (inst/sec) elapsed = 0:0:01:58 / Wed Apr 17 12:24:49 2019
GPGPU-Sim PTX: 12700000 instructions simulated : ctaid=(3,0,0) tid=(63,0,0)
GPGPU-Sim uArch: cycles simulated: 174000  inst.: 12707776 (ipc=73.0) sim_rate=106788 (inst/sec) elapsed = 0:0:01:59 / Wed Apr 17 12:24:50 2019
GPGPU-Sim PTX: 12800000 instructions simulated : ctaid=(4,0,0) tid=(31,0,0)
GPGPU-Sim uArch: cycles simulated: 175500  inst.: 12810496 (ipc=73.0) sim_rate=106754 (inst/sec) elapsed = 0:0:02:00 / Wed Apr 17 12:24:51 2019
GPGPU-Sim PTX: 12900000 instructions simulated : ctaid=(1,0,0) tid=(95,0,0)
GPGPU-Sim uArch: cycles simulated: 177000  inst.: 12913568 (ipc=73.0) sim_rate=106723 (inst/sec) elapsed = 0:0:02:01 / Wed Apr 17 12:24:52 2019
GPGPU-Sim PTX: 13000000 instructions simulated : ctaid=(3,2,0) tid=(223,0,0)
GPGPU-Sim PTX: 13100000 instructions simulated : ctaid=(6,0,0) tid=(255,0,0)
GPGPU-Sim uArch: cycles simulated: 178500  inst.: 13020288 (ipc=72.9) sim_rate=106723 (inst/sec) elapsed = 0:0:02:02 / Wed Apr 17 12:24:53 2019
GPGPU-Sim PTX: 13200000 instructions simulated : ctaid=(2,0,0) tid=(127,0,0)
GPGPU-Sim uArch: cycles simulated: 180000  inst.: 13131328 (ipc=73.0) sim_rate=106758 (inst/sec) elapsed = 0:0:02:03 / Wed Apr 17 12:24:54 2019
GPGPU-Sim PTX: 13300000 instructions simulated : ctaid=(10,0,0) tid=(127,0,0)
GPGPU-Sim uArch: cycles simulated: 181500  inst.: 13250624 (ipc=73.0) sim_rate=106859 (inst/sec) elapsed = 0:0:02:04 / Wed Apr 17 12:24:55 2019
GPGPU-Sim PTX: 13400000 instructions simulated : ctaid=(8,0,0) tid=(223,0,0)
GPGPU-Sim uArch: cycles simulated: 183000  inst.: 13353376 (ipc=73.0) sim_rate=106827 (inst/sec) elapsed = 0:0:02:05 / Wed Apr 17 12:24:56 2019
GPGPU-Sim PTX: 13500000 instructions simulated : ctaid=(5,1,0) tid=(31,0,0)
GPGPU-Sim uArch: cycles simulated: 184500  inst.: 13459264 (ipc=72.9) sim_rate=106819 (inst/sec) elapsed = 0:0:02:06 / Wed Apr 17 12:24:57 2019
GPGPU-Sim PTX: 13600000 instructions simulated : ctaid=(1,3,0) tid=(95,0,0)
GPGPU-Sim uArch: cycles simulated: 186000  inst.: 13568192 (ipc=72.9) sim_rate=106836 (inst/sec) elapsed = 0:0:02:07 / Wed Apr 17 12:24:58 2019
GPGPU-Sim PTX: 13700000 instructions simulated : ctaid=(10,3,0) tid=(159,0,0)
GPGPU-Sim uArch: cycles simulated: 187500  inst.: 13690944 (ipc=73.0) sim_rate=106960 (inst/sec) elapsed = 0:0:02:08 / Wed Apr 17 12:24:59 2019
GPGPU-Sim PTX: 13800000 instructions simulated : ctaid=(0,1,0) tid=(159,0,0)
GPGPU-Sim uArch: cycles simulated: 189000  inst.: 13794080 (ipc=73.0) sim_rate=106930 (inst/sec) elapsed = 0:0:02:09 / Wed Apr 17 12:25:00 2019
GPGPU-Sim PTX: 13900000 instructions simulated : ctaid=(0,0,0) tid=(95,0,0)
GPGPU-Sim uArch: cycles simulated: 190500  inst.: 13896032 (ipc=72.9) sim_rate=106892 (inst/sec) elapsed = 0:0:02:10 / Wed Apr 17 12:25:01 2019
GPGPU-Sim PTX: 14000000 instructions simulated : ctaid=(8,0,0) tid=(95,0,0)
GPGPU-Sim uArch: cycles simulated: 192000  inst.: 14003424 (ipc=72.9) sim_rate=106896 (inst/sec) elapsed = 0:0:02:11 / Wed Apr 17 12:25:02 2019
GPGPU-Sim PTX: 14100000 instructions simulated : ctaid=(9,0,0) tid=(127,0,0)
GPGPU-Sim uArch: cycles simulated: 193500  inst.: 14102848 (ipc=72.9) sim_rate=106839 (inst/sec) elapsed = 0:0:02:12 / Wed Apr 17 12:25:03 2019
GPGPU-Sim PTX: 14200000 instructions simulated : ctaid=(1,4,0) tid=(31,0,0)
GPGPU-Sim uArch: cycles simulated: 195000  inst.: 14202432 (ipc=72.8) sim_rate=106785 (inst/sec) elapsed = 0:0:02:13 / Wed Apr 17 12:25:04 2019
GPGPU-Sim PTX: 14300000 instructions simulated : ctaid=(5,1,0) tid=(223,0,0)
GPGPU-Sim uArch: cycles simulated: 196500  inst.: 14312864 (ipc=72.8) sim_rate=106812 (inst/sec) elapsed = 0:0:02:14 / Wed Apr 17 12:25:05 2019
GPGPU-Sim PTX: 14400000 instructions simulated : ctaid=(6,0,0) tid=(95,0,0)
GPGPU-Sim PTX: 14500000 instructions simulated : ctaid=(1,0,0) tid=(95,0,0)
GPGPU-Sim uArch: cycles simulated: 198000  inst.: 14424736 (ipc=72.9) sim_rate=106849 (inst/sec) elapsed = 0:0:02:15 / Wed Apr 17 12:25:06 2019
GPGPU-Sim PTX: 14600000 instructions simulated : ctaid=(10,1,0) tid=(159,0,0)
GPGPU-Sim uArch: cycles simulated: 199500  inst.: 14535904 (ipc=72.9) sim_rate=106881 (inst/sec) elapsed = 0:0:02:16 / Wed Apr 17 12:25:07 2019
GPGPU-Sim PTX: 14700000 instructions simulated : ctaid=(0,0,0) tid=(223,0,0)
GPGPU-Sim uArch: cycles simulated: 201000  inst.: 14635232 (ipc=72.8) sim_rate=106826 (inst/sec) elapsed = 0:0:02:17 / Wed Apr 17 12:25:08 2019
GPGPU-Sim PTX: 14800000 instructions simulated : ctaid=(6,0,0) tid=(31,0,0)
GPGPU-Sim uArch: cycles simulated: 202500  inst.: 14739584 (ipc=72.8) sim_rate=106808 (inst/sec) elapsed = 0:0:02:18 / Wed Apr 17 12:25:09 2019
GPGPU-Sim PTX: 14900000 instructions simulated : ctaid=(7,2,0) tid=(223,0,0)
GPGPU-Sim uArch: cycles simulated: 204000  inst.: 14853088 (ipc=72.8) sim_rate=106856 (inst/sec) elapsed = 0:0:02:19 / Wed Apr 17 12:25:10 2019
GPGPU-Sim PTX: 15000000 instructions simulated : ctaid=(7,0,0) tid=(159,0,0)
GPGPU-Sim uArch: cycles simulated: 205500  inst.: 14964128 (ipc=72.8) sim_rate=106886 (inst/sec) elapsed = 0:0:02:20 / Wed Apr 17 12:25:11 2019
GPGPU-Sim PTX: 15100000 instructions simulated : ctaid=(3,2,0) tid=(223,0,0)
GPGPU-Sim uArch: cycles simulated: 207000  inst.: 15073952 (ipc=72.8) sim_rate=106907 (inst/sec) elapsed = 0:0:02:21 / Wed Apr 17 12:25:12 2019
GPGPU-Sim PTX: 15200000 instructions simulated : ctaid=(2,5,0) tid=(31,0,0)
GPGPU-Sim uArch: cycles simulated: 208500  inst.: 15179200 (ipc=72.8) sim_rate=106895 (inst/sec) elapsed = 0:0:02:22 / Wed Apr 17 12:25:13 2019
GPGPU-Sim PTX: 15300000 instructions simulated : ctaid=(7,0,0) tid=(95,0,0)
GPGPU-Sim uArch: cycles simulated: 210000  inst.: 15277632 (ipc=72.8) sim_rate=106836 (inst/sec) elapsed = 0:0:02:23 / Wed Apr 17 12:25:14 2019
GPGPU-Sim PTX: 15400000 instructions simulated : ctaid=(2,0,0) tid=(223,0,0)
GPGPU-Sim uArch: cycles simulated: 211500  inst.: 15377184 (ipc=72.7) sim_rate=106786 (inst/sec) elapsed = 0:0:02:24 / Wed Apr 17 12:25:15 2019
GPGPU-Sim PTX: 15500000 instructions simulated : ctaid=(10,0,0) tid=(127,0,0)
GPGPU-Sim uArch: cycles simulated: 213000  inst.: 15488320 (ipc=72.7) sim_rate=106816 (inst/sec) elapsed = 0:0:02:25 / Wed Apr 17 12:25:16 2019
GPGPU-Sim PTX: 15600000 instructions simulated : ctaid=(0,5,0) tid=(95,0,0)
GPGPU-Sim uArch: cycles simulated: 214500  inst.: 15590272 (ipc=72.7) sim_rate=106782 (inst/sec) elapsed = 0:0:02:26 / Wed Apr 17 12:25:17 2019
GPGPU-Sim PTX: 15700000 instructions simulated : ctaid=(10,0,0) tid=(31,0,0)
GPGPU-Sim uArch: cycles simulated: 216000  inst.: 15683232 (ipc=72.6) sim_rate=106688 (inst/sec) elapsed = 0:0:02:27 / Wed Apr 17 12:25:18 2019
GPGPU-Sim PTX: 15800000 instructions simulated : ctaid=(0,4,0) tid=(209,0,0)
GPGPU-Sim uArch: cycles simulated: 217500  inst.: 15783575 (ipc=72.6) sim_rate=106645 (inst/sec) elapsed = 0:0:02:28 / Wed Apr 17 12:25:19 2019
GPGPU-Sim PTX: 15900000 instructions simulated : ctaid=(3,0,0) tid=(81,0,0)
GPGPU-Sim uArch: cycles simulated: 219000  inst.: 15868151 (ipc=72.5) sim_rate=106497 (inst/sec) elapsed = 0:0:02:29 / Wed Apr 17 12:25:20 2019
GPGPU-Sim PTX: 16000000 instructions simulated : ctaid=(7,3,0) tid=(141,0,0)
GPGPU-Sim uArch: cycles simulated: 220500  inst.: 15965897 (ipc=72.4) sim_rate=106439 (inst/sec) elapsed = 0:0:02:30 / Wed Apr 17 12:25:21 2019
GPGPU-Sim PTX: 16100000 instructions simulated : ctaid=(8,0,0) tid=(13,0,0)
GPGPU-Sim uArch: cycles simulated: 222000  inst.: 16059593 (ipc=72.3) sim_rate=106354 (inst/sec) elapsed = 0:0:02:31 / Wed Apr 17 12:25:22 2019
GPGPU-Sim PTX: 16200000 instructions simulated : ctaid=(4,1,0) tid=(13,0,0)
GPGPU-Sim uArch: cycles simulated: 224000  inst.: 16183177 (ipc=72.2) sim_rate=106468 (inst/sec) elapsed = 0:0:02:32 / Wed Apr 17 12:25:23 2019
GPGPU-Sim PTX: 16300000 instructions simulated : ctaid=(7,2,0) tid=(13,0,0)
GPGPU-Sim uArch: cycles simulated: 225500  inst.: 16277452 (ipc=72.2) sim_rate=106388 (inst/sec) elapsed = 0:0:02:33 / Wed Apr 17 12:25:24 2019
GPGPU-Sim PTX: 16400000 instructions simulated : ctaid=(0,2,0) tid=(21,0,0)
GPGPU-Sim uArch: cycles simulated: 227000  inst.: 16374419 (ipc=72.1) sim_rate=106327 (inst/sec) elapsed = 0:0:02:34 / Wed Apr 17 12:25:25 2019
GPGPU-Sim PTX: 16500000 instructions simulated : ctaid=(4,0,0) tid=(217,0,0)
GPGPU-Sim uArch: cycles simulated: 228500  inst.: 16464595 (ipc=72.1) sim_rate=106223 (inst/sec) elapsed = 0:0:02:35 / Wed Apr 17 12:25:26 2019
GPGPU-Sim PTX: 16600000 instructions simulated : ctaid=(0,4,0) tid=(197,0,0)
GPGPU-Sim uArch: cycles simulated: 230000  inst.: 16579471 (ipc=72.1) sim_rate=106278 (inst/sec) elapsed = 0:0:02:36 / Wed Apr 17 12:25:27 2019
GPGPU-Sim PTX: 16700000 instructions simulated : ctaid=(0,4,0) tid=(11,0,0)
GPGPU-Sim uArch: cycles simulated: 231500  inst.: 16665183 (ipc=72.0) sim_rate=106147 (inst/sec) elapsed = 0:0:02:37 / Wed Apr 17 12:25:28 2019
GPGPU-Sim PTX: 16800000 instructions simulated : ctaid=(6,2,0) tid=(193,0,0)
GPGPU-Sim uArch: cycles simulated: 233000  inst.: 16766687 (ipc=72.0) sim_rate=106118 (inst/sec) elapsed = 0:0:02:38 / Wed Apr 17 12:25:29 2019
GPGPU-Sim PTX: 16900000 instructions simulated : ctaid=(1,1,0) tid=(217,0,0)
GPGPU-Sim uArch: cycles simulated: 234500  inst.: 16858539 (ipc=71.9) sim_rate=106028 (inst/sec) elapsed = 0:0:02:39 / Wed Apr 17 12:25:30 2019
GPGPU-Sim PTX: 17000000 instructions simulated : ctaid=(3,2,0) tid=(207,0,0)
GPGPU-Sim uArch: cycles simulated: 236000  inst.: 16962501 (ipc=71.9) sim_rate=106015 (inst/sec) elapsed = 0:0:02:40 / Wed Apr 17 12:25:31 2019
GPGPU-Sim PTX: 17100000 instructions simulated : ctaid=(9,0,0) tid=(161,0,0)
GPGPU-Sim uArch: cycles simulated: 237500  inst.: 17051132 (ipc=71.8) sim_rate=105907 (inst/sec) elapsed = 0:0:02:41 / Wed Apr 17 12:25:32 2019
GPGPU-Sim PTX: 17200000 instructions simulated : ctaid=(3,0,0) tid=(15,0,0)
GPGPU-Sim uArch: cycles simulated: 239500  inst.: 17187964 (ipc=71.8) sim_rate=106098 (inst/sec) elapsed = 0:0:02:42 / Wed Apr 17 12:25:33 2019
GPGPU-Sim PTX: 17300000 instructions simulated : ctaid=(7,0,0) tid=(7,0,0)
GPGPU-Sim uArch: cycles simulated: 241000  inst.: 17290082 (ipc=71.7) sim_rate=106074 (inst/sec) elapsed = 0:0:02:43 / Wed Apr 17 12:25:34 2019
GPGPU-Sim PTX: 17400000 instructions simulated : ctaid=(9,0,0) tid=(195,0,0)
GPGPU-Sim uArch: cycles simulated: 242500  inst.: 17396010 (ipc=71.7) sim_rate=106073 (inst/sec) elapsed = 0:0:02:44 / Wed Apr 17 12:25:35 2019
GPGPU-Sim PTX: 17500000 instructions simulated : ctaid=(3,2,0) tid=(203,0,0)
GPGPU-Sim uArch: cycles simulated: 244000  inst.: 17497983 (ipc=71.7) sim_rate=106048 (inst/sec) elapsed = 0:0:02:45 / Wed Apr 17 12:25:36 2019
GPGPU-Sim PTX: 17600000 instructions simulated : ctaid=(9,1,0) tid=(129,0,0)
GPGPU-Sim uArch: cycles simulated: 245500  inst.: 17600058 (ipc=71.7) sim_rate=106024 (inst/sec) elapsed = 0:0:02:46 / Wed Apr 17 12:25:37 2019
GPGPU-Sim PTX: 17700000 instructions simulated : ctaid=(3,2,0) tid=(139,0,0)
GPGPU-Sim uArch: cycles simulated: 247000  inst.: 17699703 (ipc=71.7) sim_rate=105986 (inst/sec) elapsed = 0:0:02:47 / Wed Apr 17 12:25:38 2019
GPGPU-Sim PTX: 17800000 instructions simulated : ctaid=(2,0,0) tid=(209,0,0)
GPGPU-Sim uArch: cycles simulated: 248500  inst.: 17794807 (ipc=71.6) sim_rate=105921 (inst/sec) elapsed = 0:0:02:48 / Wed Apr 17 12:25:39 2019
GPGPU-Sim PTX: 17900000 instructions simulated : ctaid=(9,0,0) tid=(177,0,0)
GPGPU-Sim uArch: cycles simulated: 250000  inst.: 17891319 (ipc=71.6) sim_rate=105865 (inst/sec) elapsed = 0:0:02:49 / Wed Apr 17 12:25:40 2019
GPGPU-Sim PTX: 18000000 instructions simulated : ctaid=(8,3,0) tid=(17,0,0)
GPGPU-Sim uArch: cycles simulated: 251500  inst.: 17996471 (ipc=71.6) sim_rate=105861 (inst/sec) elapsed = 0:0:02:50 / Wed Apr 17 12:25:41 2019
GPGPU-Sim PTX: 18100000 instructions simulated : ctaid=(7,3,0) tid=(149,0,0)
GPGPU-Sim PTX: 18200000 instructions simulated : ctaid=(0,3,0) tid=(21,0,0)
GPGPU-Sim uArch: cycles simulated: 253500  inst.: 18123509 (ipc=71.5) sim_rate=105985 (inst/sec) elapsed = 0:0:02:51 / Wed Apr 17 12:25:42 2019
GPGPU-Sim PTX: 18300000 instructions simulated : ctaid=(7,2,0) tid=(21,0,0)
GPGPU-Sim uArch: cycles simulated: 255000  inst.: 18216725 (ipc=71.4) sim_rate=105911 (inst/sec) elapsed = 0:0:02:52 / Wed Apr 17 12:25:43 2019
GPGPU-Sim uArch: cycles simulated: 256500  inst.: 18303342 (ipc=71.4) sim_rate=105799 (inst/sec) elapsed = 0:0:02:53 / Wed Apr 17 12:25:44 2019
GPGPU-Sim PTX: 18400000 instructions simulated : ctaid=(0,1,0) tid=(131,0,0)
GPGPU-Sim uArch: cycles simulated: 258000  inst.: 18395398 (ipc=71.3) sim_rate=105720 (inst/sec) elapsed = 0:0:02:54 / Wed Apr 17 12:25:45 2019
GPGPU-Sim PTX: 18500000 instructions simulated : ctaid=(2,0,0) tid=(83,0,0)
GPGPU-Sim PTX: 18600000 instructions simulated : ctaid=(0,1,0) tid=(117,0,0)
GPGPU-Sim uArch: cycles simulated: 260000  inst.: 18523253 (ipc=71.2) sim_rate=105847 (inst/sec) elapsed = 0:0:02:55 / Wed Apr 17 12:25:46 2019
GPGPU-Sim PTX: 18700000 instructions simulated : ctaid=(2,0,0) tid=(53,0,0)
GPGPU-Sim uArch: cycles simulated: 261500  inst.: 18615605 (ipc=71.2) sim_rate=105770 (inst/sec) elapsed = 0:0:02:56 / Wed Apr 17 12:25:47 2019
GPGPU-Sim PTX: 18800000 instructions simulated : ctaid=(1,1,0) tid=(223,0,0)
GPGPU-Sim uArch: cycles simulated: 263000  inst.: 18713392 (ipc=71.2) sim_rate=105725 (inst/sec) elapsed = 0:0:02:57 / Wed Apr 17 12:25:48 2019
GPGPU-Sim PTX: 18900000 instructions simulated : ctaid=(8,0,0) tid=(141,0,0)
GPGPU-Sim uArch: cycles simulated: 264500  inst.: 18810793 (ipc=71.1) sim_rate=105678 (inst/sec) elapsed = 0:0:02:58 / Wed Apr 17 12:25:49 2019
GPGPU-Sim PTX: 19000000 instructions simulated : ctaid=(0,4,0) tid=(75,0,0)
GPGPU-Sim uArch: cycles simulated: 266000  inst.: 18910922 (ipc=71.1) sim_rate=105647 (inst/sec) elapsed = 0:0:02:59 / Wed Apr 17 12:25:50 2019
GPGPU-Sim PTX: 19100000 instructions simulated : ctaid=(3,1,0) tid=(45,0,0)
GPGPU-Sim uArch: cycles simulated: 267500  inst.: 19009081 (ipc=71.1) sim_rate=105606 (inst/sec) elapsed = 0:0:03:00 / Wed Apr 17 12:25:51 2019
GPGPU-Sim uArch: cycles simulated: 269000  inst.: 19100575 (ipc=71.0) sim_rate=105528 (inst/sec) elapsed = 0:0:03:01 / Wed Apr 17 12:25:52 2019
GPGPU-Sim PTX: 19200000 instructions simulated : ctaid=(3,0,0) tid=(65,0,0)
GPGPU-Sim uArch: cycles simulated: 270500  inst.: 19189467 (ipc=70.9) sim_rate=105436 (inst/sec) elapsed = 0:0:03:02 / Wed Apr 17 12:25:53 2019
GPGPU-Sim PTX: 19300000 instructions simulated : ctaid=(4,1,0) tid=(137,0,0)
GPGPU-Sim uArch: cycles simulated: 272000  inst.: 19276015 (ipc=70.9) sim_rate=105333 (inst/sec) elapsed = 0:0:03:03 / Wed Apr 17 12:25:54 2019
GPGPU-Sim PTX: 19400000 instructions simulated : ctaid=(4,3,0) tid=(1,0,0)
GPGPU-Sim PTX: 19500000 instructions simulated : ctaid=(1,0,0) tid=(99,0,0)
GPGPU-Sim uArch: cycles simulated: 274000  inst.: 19416654 (ipc=70.9) sim_rate=105525 (inst/sec) elapsed = 0:0:03:04 / Wed Apr 17 12:25:55 2019
GPGPU-Sim PTX: 19600000 instructions simulated : ctaid=(6,0,0) tid=(211,0,0)
GPGPU-Sim uArch: cycles simulated: 275500  inst.: 19509670 (ipc=70.8) sim_rate=105457 (inst/sec) elapsed = 0:0:03:05 / Wed Apr 17 12:25:56 2019
GPGPU-Sim PTX: 19700000 instructions simulated : ctaid=(2,0,0) tid=(151,0,0)
GPGPU-Sim uArch: cycles simulated: 277000  inst.: 19605092 (ipc=70.8) sim_rate=105403 (inst/sec) elapsed = 0:0:03:06 / Wed Apr 17 12:25:57 2019
GPGPU-Sim uArch: cycles simulated: 278500  inst.: 19702845 (ipc=70.7) sim_rate=105362 (inst/sec) elapsed = 0:0:03:07 / Wed Apr 17 12:25:58 2019
GPGPU-Sim PTX: 19800000 instructions simulated : ctaid=(8,0,0) tid=(165,0,0)
GPGPU-Sim uArch: cycles simulated: 280000  inst.: 19794461 (ipc=70.7) sim_rate=105289 (inst/sec) elapsed = 0:0:03:08 / Wed Apr 17 12:25:59 2019
GPGPU-Sim PTX: 19900000 instructions simulated : ctaid=(1,0,0) tid=(5,0,0)
GPGPU-Sim PTX: 20000000 instructions simulated : ctaid=(1,1,0) tid=(51,0,0)
GPGPU-Sim uArch: cycles simulated: 282000  inst.: 19909622 (ipc=70.6) sim_rate=105341 (inst/sec) elapsed = 0:0:03:09 / Wed Apr 17 12:26:00 2019
GPGPU-Sim PTX: 20100000 instructions simulated : ctaid=(7,2,0) tid=(205,0,0)
GPGPU-Sim uArch: cycles simulated: 283500  inst.: 20006953 (ipc=70.6) sim_rate=105299 (inst/sec) elapsed = 0:0:03:10 / Wed Apr 17 12:26:01 2019
GPGPU-Sim PTX: 20200000 instructions simulated : ctaid=(9,0,0) tid=(43,0,0)
GPGPU-Sim uArch: cycles simulated: 285000  inst.: 20107738 (ipc=70.6) sim_rate=105276 (inst/sec) elapsed = 0:0:03:11 / Wed Apr 17 12:26:02 2019
GPGPU-Sim uArch: cycles simulated: 286500  inst.: 20198571 (ipc=70.5) sim_rate=105200 (inst/sec) elapsed = 0:0:03:12 / Wed Apr 17 12:26:03 2019
GPGPU-Sim PTX: 20300000 instructions simulated : ctaid=(8,0,0) tid=(73,0,0)
GPGPU-Sim uArch: cycles simulated: 288000  inst.: 20285291 (ipc=70.4) sim_rate=105105 (inst/sec) elapsed = 0:0:03:13 / Wed Apr 17 12:26:04 2019
GPGPU-Sim PTX: 20400000 instructions simulated : ctaid=(7,0,0) tid=(137,0,0)
GPGPU-Sim PTX: 20500000 instructions simulated : ctaid=(0,3,0) tid=(149,0,0)
GPGPU-Sim uArch: cycles simulated: 290000  inst.: 20404101 (ipc=70.4) sim_rate=105175 (inst/sec) elapsed = 0:0:03:14 / Wed Apr 17 12:26:05 2019
GPGPU-Sim uArch: cycles simulated: 291500  inst.: 20488357 (ipc=70.3) sim_rate=105068 (inst/sec) elapsed = 0:0:03:15 / Wed Apr 17 12:26:06 2019
GPGPU-Sim PTX: 20600000 instructions simulated : ctaid=(7,2,0) tid=(21,0,0)
GPGPU-Sim uArch: cycles simulated: 293000  inst.: 20585886 (ipc=70.3) sim_rate=105030 (inst/sec) elapsed = 0:0:03:16 / Wed Apr 17 12:26:07 2019
GPGPU-Sim PTX: 20700000 instructions simulated : ctaid=(8,0,0) tid=(131,0,0)
GPGPU-Sim PTX: 20800000 instructions simulated : ctaid=(1,1,0) tid=(131,0,0)
GPGPU-Sim uArch: cycles simulated: 295000  inst.: 20704574 (ipc=70.2) sim_rate=105099 (inst/sec) elapsed = 0:0:03:17 / Wed Apr 17 12:26:08 2019
GPGPU-Sim uArch: cycles simulated: 296500  inst.: 20794142 (ipc=70.1) sim_rate=105020 (inst/sec) elapsed = 0:0:03:18 / Wed Apr 17 12:26:09 2019
GPGPU-Sim PTX: 20900000 instructions simulated : ctaid=(5,1,0) tid=(131,0,0)
GPGPU-Sim uArch: cycles simulated: 298000  inst.: 20887422 (ipc=70.1) sim_rate=104961 (inst/sec) elapsed = 0:0:03:19 / Wed Apr 17 12:26:10 2019
GPGPU-Sim PTX: 21000000 instructions simulated : ctaid=(3,0,0) tid=(195,0,0)
GPGPU-Sim uArch: cycles simulated: 299500  inst.: 20978142 (ipc=70.0) sim_rate=104890 (inst/sec) elapsed = 0:0:03:20 / Wed Apr 17 12:26:11 2019
GPGPU-Sim PTX: 21100000 instructions simulated : ctaid=(1,0,0) tid=(131,0,0)
GPGPU-Sim uArch: cycles simulated: 301000  inst.: 21078639 (ipc=70.0) sim_rate=104868 (inst/sec) elapsed = 0:0:03:21 / Wed Apr 17 12:26:12 2019
GPGPU-Sim PTX: 21200000 instructions simulated : ctaid=(2,3,0) tid=(65,0,0)
GPGPU-Sim PTX: 21300000 instructions simulated : ctaid=(1,0,0) tid=(65,0,0)
GPGPU-Sim uArch: cycles simulated: 303000  inst.: 21204879 (ipc=70.0) sim_rate=104974 (inst/sec) elapsed = 0:0:03:22 / Wed Apr 17 12:26:13 2019
GPGPU-Sim uArch: cycles simulated: 304500  inst.: 21294764 (ipc=69.9) sim_rate=104900 (inst/sec) elapsed = 0:0:03:23 / Wed Apr 17 12:26:14 2019
GPGPU-Sim PTX: 21400000 instructions simulated : ctaid=(4,3,0) tid=(135,0,0)
GPGPU-Sim uArch: cycles simulated: 306000  inst.: 21396908 (ipc=69.9) sim_rate=104886 (inst/sec) elapsed = 0:0:03:24 / Wed Apr 17 12:26:15 2019
GPGPU-Sim PTX: 21500000 instructions simulated : ctaid=(4,0,0) tid=(201,0,0)
GPGPU-Sim PTX: 21600000 instructions simulated : ctaid=(1,1,0) tid=(73,0,0)
GPGPU-Sim uArch: cycles simulated: 307500  inst.: 21507627 (ipc=69.9) sim_rate=104915 (inst/sec) elapsed = 0:0:03:25 / Wed Apr 17 12:26:16 2019
GPGPU-Sim PTX: 21700000 instructions simulated : ctaid=(3,0,0) tid=(35,0,0)
GPGPU-Sim uArch: cycles simulated: 309500  inst.: 21644766 (ipc=69.9) sim_rate=105071 (inst/sec) elapsed = 0:0:03:26 / Wed Apr 17 12:26:17 2019
GPGPU-Sim PTX: 21800000 instructions simulated : ctaid=(5,2,0) tid=(83,0,0)
GPGPU-Sim uArch: cycles simulated: 311000  inst.: 21745268 (ipc=69.9) sim_rate=105049 (inst/sec) elapsed = 0:0:03:27 / Wed Apr 17 12:26:18 2019
GPGPU-Sim PTX: 21900000 instructions simulated : ctaid=(8,1,0) tid=(215,0,0)
GPGPU-Sim uArch: cycles simulated: 312500  inst.: 21851777 (ipc=69.9) sim_rate=105056 (inst/sec) elapsed = 0:0:03:28 / Wed Apr 17 12:26:19 2019
GPGPU-Sim PTX: 22000000 instructions simulated : ctaid=(9,0,0) tid=(93,0,0)
GPGPU-Sim uArch: cycles simulated: 314000  inst.: 21934817 (ipc=69.9) sim_rate=104951 (inst/sec) elapsed = 0:0:03:29 / Wed Apr 17 12:26:20 2019
GPGPU-Sim PTX: 22100000 instructions simulated : ctaid=(0,1,0) tid=(93,0,0)
GPGPU-Sim uArch: cycles simulated: 316000  inst.: 22074401 (ipc=69.9) sim_rate=105116 (inst/sec) elapsed = 0:0:03:30 / Wed Apr 17 12:26:21 2019
GPGPU-Sim PTX: 22200000 instructions simulated : ctaid=(1,0,0) tid=(125,0,0)
GPGPU-Sim uArch: cycles simulated: 317500  inst.: 22164609 (ipc=69.8) sim_rate=105045 (inst/sec) elapsed = 0:0:03:31 / Wed Apr 17 12:26:22 2019
GPGPU-Sim PTX: 22300000 instructions simulated : ctaid=(5,1,0) tid=(221,0,0)
GPGPU-Sim uArch: cycles simulated: 319000  inst.: 22272607 (ipc=69.8) sim_rate=105059 (inst/sec) elapsed = 0:0:03:32 / Wed Apr 17 12:26:23 2019
GPGPU-Sim PTX: 22400000 instructions simulated : ctaid=(2,3,0) tid=(17,0,0)
GPGPU-Sim uArch: cycles simulated: 320500  inst.: 22387767 (ipc=69.9) sim_rate=105106 (inst/sec) elapsed = 0:0:03:33 / Wed Apr 17 12:26:24 2019
GPGPU-Sim PTX: 22500000 instructions simulated : ctaid=(4,2,0) tid=(209,0,0)
GPGPU-Sim uArch: cycles simulated: 322000  inst.: 22490551 (ipc=69.8) sim_rate=105096 (inst/sec) elapsed = 0:0:03:34 / Wed Apr 17 12:26:25 2019
GPGPU-Sim PTX: 22600000 instructions simulated : ctaid=(7,3,0) tid=(17,0,0)
GPGPU-Sim uArch: cycles simulated: 323500  inst.: 22593747 (ipc=69.8) sim_rate=105087 (inst/sec) elapsed = 0:0:03:35 / Wed Apr 17 12:26:26 2019
GPGPU-Sim PTX: 22700000 instructions simulated : ctaid=(2,2,0) tid=(217,0,0)
GPGPU-Sim PTX: 22800000 instructions simulated : ctaid=(3,1,0) tid=(71,0,0)
GPGPU-Sim uArch: cycles simulated: 325500  inst.: 22724812 (ipc=69.8) sim_rate=105207 (inst/sec) elapsed = 0:0:03:36 / Wed Apr 17 12:26:27 2019
GPGPU-Sim PTX: 22900000 instructions simulated : ctaid=(10,1,0) tid=(7,0,0)
GPGPU-Sim uArch: cycles simulated: 327000  inst.: 22828236 (ipc=69.8) sim_rate=105199 (inst/sec) elapsed = 0:0:03:37 / Wed Apr 17 12:26:28 2019
GPGPU-Sim PTX: 23000000 instructions simulated : ctaid=(3,1,0) tid=(199,0,0)
GPGPU-Sim uArch: cycles simulated: 328500  inst.: 22933023 (ipc=69.8) sim_rate=105197 (inst/sec) elapsed = 0:0:03:38 / Wed Apr 17 12:26:29 2019
GPGPU-Sim PTX: 23100000 instructions simulated : ctaid=(8,0,0) tid=(127,0,0)
GPGPU-Sim uArch: cycles simulated: 330000  inst.: 23039808 (ipc=69.8) sim_rate=105204 (inst/sec) elapsed = 0:0:03:39 / Wed Apr 17 12:26:30 2019
GPGPU-Sim PTX: 23200000 instructions simulated : ctaid=(4,1,0) tid=(27,0,0)
GPGPU-Sim uArch: cycles simulated: 331500  inst.: 23139762 (ipc=69.8) sim_rate=105180 (inst/sec) elapsed = 0:0:03:40 / Wed Apr 17 12:26:31 2019
GPGPU-Sim PTX: 23300000 instructions simulated : ctaid=(4,2,0) tid=(1,0,0)
GPGPU-Sim uArch: cycles simulated: 333000  inst.: 23235951 (ipc=69.8) sim_rate=105140 (inst/sec) elapsed = 0:0:03:41 / Wed Apr 17 12:26:32 2019
GPGPU-Sim PTX: 23400000 instructions simulated : ctaid=(5,2,0) tid=(193,0,0)
GPGPU-Sim uArch: cycles simulated: 335000  inst.: 23370287 (ipc=69.8) sim_rate=105271 (inst/sec) elapsed = 0:0:03:42 / Wed Apr 17 12:26:33 2019
GPGPU-Sim PTX: 23500000 instructions simulated : ctaid=(0,0,0) tid=(27,0,0)
GPGPU-Sim uArch: cycles simulated: 336500  inst.: 23468560 (ipc=69.7) sim_rate=105240 (inst/sec) elapsed = 0:0:03:43 / Wed Apr 17 12:26:34 2019
GPGPU-Sim PTX: 23600000 instructions simulated : ctaid=(4,0,0) tid=(191,0,0)
GPGPU-Sim uArch: cycles simulated: 338000  inst.: 23578926 (ipc=69.8) sim_rate=105263 (inst/sec) elapsed = 0:0:03:44 / Wed Apr 17 12:26:35 2019
GPGPU-Sim PTX: 23700000 instructions simulated : ctaid=(4,1,0) tid=(3,0,0)
GPGPU-Sim uArch: cycles simulated: 339500  inst.: 23678882 (ipc=69.7) sim_rate=105239 (inst/sec) elapsed = 0:0:03:45 / Wed Apr 17 12:26:36 2019
GPGPU-Sim PTX: 23800000 instructions simulated : ctaid=(9,1,0) tid=(27,0,0)
[...]
dram[4]:  1.116023  1.117227  1.108119  1.110267  1.109414  1.109995  1.107824  1.106954  1.107438  1.111708  1.107963  1.106081  1.114919  1.114327  1.110467  1.113482 
dram[5]:  1.123830  1.125017  1.117539  1.115138  1.117511  1.114529  1.121105  1.114436  1.118132  1.118239  1.117832  1.117440  1.120282  1.119065  1.120555  1.118206 
average row locality = 2332672/2094177 = 1.113885
number of total memory accesses made:
dram[0]:         0         0         0         0         0         0         0         0         0         0         0         0         0         0         0         0 
dram[1]:         0         0         0         0         0         0         0         0         0         0         0         0         0         0         0         0 
dram[2]:         0         0         0         0         0         0         0         0         0         0         0         0         0         0         0         0 
dram[3]:         0         0         0         0         0         0         0         0         0         0         0         0         0         0         0         0 
dram[4]:         0         0         0         0         0         0         0         0         0         0         0         0         0         0         0         0 
dram[5]:         0         0         0         0         0         0         0         0         0         0         0         0         0         0         0         0 
total accesses: 0
min_bank_accesses = 0!
min_chip_accesses = 0!
number of total read accesses:
dram[0]:     23685     24104     23585     23623     23907     24095     24381     24198     23775     24222     23966     24021     23603     23846     23789     23856 
dram[1]:     24317     24547     24184     24090     24333     24672     24999     24753     24492     24593     24584     24388     24231     24420     24477     24244 
dram[2]:     24225     24211     23661     24077     24411     24534     24477     24811     24439     24481     24365     24572     24114     24054     23907     24497 
dram[3]:     24416     24487     23744     23822     24707     24433     24829     24801     24638     24534     24098     24503     24450     24149     24118     24448 
dram[4]:     23945     24353     23583     23672     24193     24431     24340     24291     24223     24631     24127     24138     23827     24382     23871     24044 
dram[5]:     24558     24620     24283     23690     24602     24747     25041     24395     24666     24892     24893     24073     24261     24394     24549     24172 
total reads: 2330880
bank skew: 25041/23583 = 1.06
chip skew: 391836/382656 = 1.02
number of total write accesses:
dram[0]:        64        64         0         0         0         0         0         0         0         0         0         0        20        20        64        64 
dram[1]:        64        64         0         0         0         0         0         0         0         0         0         0        20        20        64        64 
dram[2]:        64        64         0         0         0         0         0         0         0         0         0         0        20        24        64        64 
dram[3]:        64        64         0         0         0         0         0         0         0         0         0         0        20        24        64        64 
dram[4]:        64        64         0         0         0         0         0         0         0         0         0         0        20        24        64        64 
dram[5]:        64        64         0         0         0         0         0         0         0         0         0         0        20        24        64        64 
total reads: 1792
min_bank_accesses = 0!
chip skew: 300/296 = 1.01
average mf latency per bank:
dram[0]:       1310      1253      1576      1470      1283      1280      1289      1269      1285      1276      1297      1269      1293      1295      1313      1297
dram[1]:       1435      1273      1790      1494      1460      1299      1454      1293      1436      1300      1445      1292      1474      1304      1471      1333
dram[2]:       1317      1340      1610      1518      1350      1351      1331      1348      1348      1340      1315      1337      1338      1327      1331      1347
dram[3]:       1180      1235      1430      1406      1199      1254      1197      1252      1191      1237      1203      1271      1190      1249      1230      1269
dram[4]:       1256      1226      1478      1359      1247      1259      1273      1255      1252      1231      1251      1216      1249      1235      1254      1225
dram[5]:       1275      1110      1520      1116      1271      1139      1281      1144      1267      1122      1275      1144      1303      1126      1303      1171
maximum mf latency per bank:
dram[0]:       1133      1049      1151      1080      1121      1011      1176      1113      1095      1043      1078      1062      1153      1121      1140      1036
dram[1]:       1098      1044      1083      1097      1210      1092      1070      1079      1133      1085      1095      1102      1138      1101      1068      1061
dram[2]:       1072      1067      1056      1082      1033      1078      1014      1036      1039      1061      1033      1139      1062      1066      1091      1081
dram[3]:        960      1071      1014      1040      1092      1042      1042      1053      1053      1030      1023      1076      1045      1045      1054      1112
dram[4]:       1103      1079      1019      1055      1021      1074      1066      1174      1033      1021      1064      1028      1041      1036      1051      1063
dram[5]:       1051      1181      1048       975      1049       985      1074       949      1092       927      1073       964      1052      1118      1038      1024

Number of Memory Banks Accessed per Memory Operation per Warp (from 0):
0	0	0	0	0	0	0	0	0	0	0	0	0	0	0	0	0	0	0	0	0	0	0	0	0	0	0	0	0	0	0	0	0	0	0	0	0	0	0	0	0	0	0	0	0	0	0	0	0	0	0	0	0	0	0	0	0	0	0	0	0	0	0	0	0	0	0	0	0	0	0	0	0	0	0	0	0	0	0	0	0	0	0	0	0	0	0	0	0	0	0	0	0	0	0	0	
Average # of Memory Banks Accessed per Memory Operation per Warp=-nan

position of mrq chosen
0	0	0	0	0	0	0	0	0	0	0	0	0	0	0	0	

average position of mrq chosen = -nan
Memory Partition 0: 
Cache L2_bank_000:
MSHR contents

Cache L2_bank_001:
MSHR contents

In Dram Latency Queue (total = 0): 
DRAM[0]: 16 bks, busW=4 BL=8 CL=12, tRRD=2 tCCD=6, tRCD=12 tRAS=28 tRP=12 tRC=40
n_cmd=9172344 n_nop=7718708 n_act=343874 n_pre=343858 n_req=382952 n_rd=765312 n_write=592 bw_util=0.167
n_activity=7176160 dram_eff=0.2135
bk0: 47370a 8463298i bk1: 48208a 8451672i bk2: 47170a 8461022i bk3: 47246a 8463781i bk4: 47814a 8451726i bk5: 48190a 8448878i bk6: 48762a 8435348i bk7: 48396a 8437735i bk8: 47550a 8455812i bk9: 48444a 8443094i bk10: 47932a 8447499i bk11: 48042a 8449988i bk12: 47206a 8462639i bk13: 47692a 8452753i bk14: 47578a 8451191i bk15: 47712a 8448623i 
dram_util_bins: 0 0 0 0 0 0 0 0 0 0
dram_eff_bins: 0 0 0 0 0 0 0 0 0 0
mrqq: max=16 avg=0.132361
Memory Partition 1: 
Cache L2_bank_002:
MSHR contents

Cache L2_bank_003:
MSHR contents

In Dram Latency Queue (total = 0): 
DRAM[1]: 16 bks, busW=4 BL=8 CL=12, tRRD=2 tCCD=6, tRCD=12 tRAS=28 tRP=12 tRC=40
n_cmd=9172344 n_nop=7686150 n_act=351485 n_pre=351469 n_req=391620 n_rd=782648 n_write=592 bw_util=0.1708
n_activity=7267673 dram_eff=0.2155
bk0: 48634a 8438716i bk1: 49094a 8435143i bk2: 48368a 8445776i bk3: 48180a 8447589i bk4: 48666a 8439422i bk5: 49344a 8429580i bk6: 49998a 8415248i bk7: 49506a 8426660i bk8: 48984a 8433446i bk9: 49186a 8431952i bk10: 49168a 8431313i bk11: 48776a 8435413i bk12: 48462a 8437771i bk13: 48840a 8433502i bk14: 48954a 8430382i bk15: 48488a 8436207i 
dram_util_bins: 0 0 0 0 0 0 0 0 0 0
dram_eff_bins: 0 0 0 0 0 0 0 0 0 0
mrqq: max=16 avg=0.134868
Memory Partition 2: 
Cache L2_bank_004:
MSHR contents

Cache L2_bank_005:
MSHR contents

In Dram Latency Queue (total = 0): 
DRAM[2]: 16 bks, busW=4 BL=8 CL=12, tRRD=2 tCCD=6, tRCD=12 tRAS=28 tRP=12 tRC=40
n_cmd=9172344 n_nop=7692982 n_act=350553 n_pre=350537 n_req=389136 n_rd=777672 n_write=600 bw_util=0.1697
n_activity=7153328 dram_eff=0.2176
bk0: 48450a 8437339i bk1: 48422a 8439514i bk2: 47322a 8453717i bk3: 48154a 8441312i bk4: 48822a 8431063i bk5: 49068a 8426755i bk6: 48954a 8420284i bk7: 49622a 8410294i bk8: 48878a 8427640i bk9: 48962a 8426982i bk10: 48730a 8427156i bk11: 49144a 8418899i bk12: 48228a 8432456i bk13: 48108a 8437447i bk14: 47814a 8437186i bk15: 48994a 8420773i 
dram_util_bins: 0 0 0 0 0 0 0 0 0 0
dram_eff_bins: 0 0 0 0 0 0 0 0 0 0
mrqq: max=16 avg=0.155294
Memory Partition 3: 
Cache L2_bank_006:
MSHR contents

Cache L2_bank_007:
MSHR contents

In Dram Latency Queue (total = 0): 
DRAM[3]: 16 bks, busW=4 BL=8 CL=12, tRRD=2 tCCD=6, tRCD=12 tRAS=28 tRP=12 tRC=40
n_cmd=9172344 n_nop=7691594 n_act=349906 n_pre=349890 n_req=390477 n_rd=780354 n_write=600 bw_util=0.1703
n_activity=7171890 dram_eff=0.2178
bk0: 48832a 8435734i bk1: 48974a 8437409i bk2: 47488a 8455292i bk3: 47644a 8457819i bk4: 49414a 8428196i bk5: 48866a 8435563i bk6: 49658a 8421888i bk7: 49602a 8421061i bk8: 49276a 8426814i bk9: 49068a 8429616i bk10: 48196a 8444045i bk11: 49006a 8430558i bk12: 48900a 8437513i bk13: 48298a 8441258i bk14: 48236a 8437625i bk15: 48896a 8431915i 
dram_util_bins: 0 0 0 0 0 0 0 0 0 0
dram_eff_bins: 0 0 0 0 0 0 0 0 0 0
mrqq: max=16 avg=0.137641
Memory Partition 4: 
Cache L2_bank_008:
MSHR contents

Cache L2_bank_009:
MSHR contents

In Dram Latency Queue (total = 0): 
DRAM[4]: 16 bks, busW=4 BL=8 CL=12, tRRD=2 tCCD=6, tRCD=12 tRAS=28 tRP=12 tRC=40
n_cmd=9172344 n_nop=7704004 n_act=347827 n_pre=347811 n_req=386351 n_rd=772102 n_write=600 bw_util=0.1685
n_activity=7128586 dram_eff=0.2168
bk0: 47890a 8449625i bk1: 48706a 8437515i bk2: 47166a 8456536i bk3: 47344a 8457159i bk4: 48386a 8438468i bk5: 48862a 8431029i bk6: 48680a 8429509i bk7: 48582a 8429484i bk8: 48446a 8435720i bk9: 49262a 8425991i bk10: 48254a 8437228i bk11: 48276a 8436166i bk12: 47654a 8449401i bk13: 48764a 8431878i bk14: 47742a 8442335i bk15: 48088a 8439008i 
dram_util_bins: 0 0 0 0 0 0 0 0 0 0
dram_eff_bins: 0 0 0 0 0 0 0 0 0 0
mrqq: max=16 avg=0.140992
Memory Partition 5: 
Cache L2_bank_010:
MSHR contents

Cache L2_bank_011:
MSHR contents
MSHR: tag=0x81e4a780, atomic=0 1 entries : 0x7fa87572b9e0 :  mf: uid=107546746, sid02:w15, part=5, addr=0x81e4a780, load , size=128, unknown  status = IN_PARTITION_DRAM (6948744), 

In Dram Latency Queue (total = 0): 
DRAM[5]: 16 bks, busW=4 BL=8 CL=12, tRRD=2 tCCD=6, tRCD=12 tRAS=28 tRP=12 tRC=40
n_cmd=9172344 n_nop=7687022 n_act=350533 n_pre=350517 n_req=392136 n_rd=783672 n_write=600 bw_util=0.171
n_activity=7207732 dram_eff=0.2176
bk0: 49116a 8437917i bk1: 49240a 8438494i bk2: 48566a 8442843i bk3: 47380a 8463706i bk4: 49204a 8433513i bk5: 49494a 8429321i bk6: 50082a 8419415i bk7: 48790a 8436245i bk8: 49332a 8431116i bk9: 49784a 8427342i bk10: 49786a 8423330i bk11: 48146a 8448420i bk12: 48522a 8442162i bk13: 48788a 8436771i bk14: 49098a 8429844i bk15: 48344a 8441481i 
dram_util_bins: 0 0 0 0 0 0 0 0 0 0
dram_eff_bins: 0 0 0 0 0 0 0 0 0 0
mrqq: max=16 avg=0.130467

========= L2 cache stats =========
L2_cache_bank[0]: Access = 706099, Miss = 190691, Miss_rate = 0.270, Pending_hits = 21, Reservation_fails = 2159
L2_cache_bank[1]: Access = 704134, Miss = 191965, Miss_rate = 0.273, Pending_hits = 4, Reservation_fails = 1624
L2_cache_bank[2]: Access = 722350, Miss = 195617, Miss_rate = 0.271, Pending_hits = 15, Reservation_fails = 255
L2_cache_bank[3]: Access = 706799, Miss = 195707, Miss_rate = 0.277, Pending_hits = 3, Reservation_fails = 28
L2_cache_bank[4]: Access = 708141, Miss = 193599, Miss_rate = 0.273, Pending_hits = 10, Reservation_fails = 2302
L2_cache_bank[5]: Access = 704220, Miss = 195237, Miss_rate = 0.277, Pending_hits = 7, Reservation_fails = 1719
L2_cache_bank[6]: Access = 696779, Miss = 195000, Miss_rate = 0.280, Pending_hits = 9, Reservation_fails = 57
L2_cache_bank[7]: Access = 697457, Miss = 195177, Miss_rate = 0.280, Pending_hits = 10, Reservation_fails = 36
L2_cache_bank[8]: Access = 698387, Miss = 192109, Miss_rate = 0.275, Pending_hits = 6, Reservation_fails = 442
L2_cache_bank[9]: Access = 696097, Miss = 193942, Miss_rate = 0.279, Pending_hits = 4, Reservation_fails = 239
L2_cache_bank[10]: Access = 710176, Miss = 196853, Miss_rate = 0.277, Pending_hits = 5, Reservation_fails = 42
L2_cache_bank[11]: Access = 687414, Miss = 194983, Miss_rate = 0.284, Pending_hits = 0, Reservation_fails = 46
L2_total_cache_accesses = 8438053
L2_total_cache_misses = 2330880
L2_total_cache_miss_rate = 0.2762
L2_total_cache_pending_hits = 94
L2_total_cache_reservation_fails = 8949
L2_total_cache_breakdown:
	L2_cache_stats_breakdown[GLOBAL_ACC_R][HIT] = 6107011
	L2_cache_stats_breakdown[GLOBAL_ACC_R][HIT_RESERVED] = 81
	L2_cache_stats_breakdown[GLOBAL_ACC_R][MISS] = 2329079
	L2_cache_stats_breakdown[GLOBAL_ACC_R][RESERVATION_FAIL] = 8535
	L2_cache_stats_breakdown[CONST_ACC_R][HIT] = 11
	L2_cache_stats_breakdown[CONST_ACC_R][HIT_RESERVED] = 3
	L2_cache_stats_breakdown[CONST_ACC_R][MISS] = 1
	L2_cache_stats_breakdown[CONST_ACC_R][RESERVATION_FAIL] = 95
	L2_cache_stats_breakdown[GLOBAL_ACC_W][MISS] = 1792
	L2_cache_stats_breakdown[INST_ACC_R][HIT] = 57
	L2_cache_stats_breakdown[INST_ACC_R][HIT_RESERVED] = 10
	L2_cache_stats_breakdown[INST_ACC_R][MISS] = 8
	L2_cache_stats_breakdown[INST_ACC_R][RESERVATION_FAIL] = 319
L2_cache_data_port_util = 0.293
L2_cache_fill_port_util = 0.112

icnt_total_pkts_mem_to_simt=42183067
icnt_total_pkts_simt_to_mem=8445221
LD_mem_lat_dist  0 0 0 0 0 0 0 0 0 0 0 0 0 0 0 0 0 0 0 0 0 0 0 0 0 0 0
ST_mem_lat_dist  0 0 0 0 0 0 0 0 0 0 0 0 0 0 0 0 0 0 0 0 0 0 0 0 0 0 0
----------------------------Interconnect-DETAILS--------------------------------
Class 0:
Packet latency average = 38.307
	minimum = 6
	maximum = 597
Network latency average = 28.674
	minimum = 6
	maximum = 556
Slowest packet = 8463617
Flit latency average = 18.6106
	minimum = 6
	maximum = 556
Slowest flit = 45948797
Fragmentation average = 0.000295501
	minimum = 0
	maximum = 244
Injected packet rate average = 0.0902136
	minimum = 0.0760602 (at node 4)
	maximum = 0.104157 (at node 17)
Accepted packet rate average = 0.0902136
	minimum = 0.0760602 (at node 4)
	maximum = 0.104157 (at node 17)
Injected flit rate average = 0.270641
	minimum = 0.0761251 (at node 4)
	maximum = 0.5207 (at node 17)
Accepted flit rate average= 0.270641
	minimum = 0.0992376 (at node 26)
	maximum = 0.434431 (at node 2)
Injected packet length average = 3
Accepted packet length average = 3
Total in-flight flits = 0 (0 measured)
====== Overall Traffic Statistics ======
====== Traffic class 0 ======
Packet latency average = 38.2669 (2 samples)
	minimum = 6 (2 samples)
	maximum = 612.5 (2 samples)
Network latency average = 28.5849 (2 samples)
	minimum = 6 (2 samples)
	maximum = 545 (2 samples)
Flit latency average = 18.5978 (2 samples)
	minimum = 6 (2 samples)
	maximum = 545 (2 samples)
Fragmentation average = 0.000306972 (2 samples)
	minimum = 0 (2 samples)
	maximum = 329 (2 samples)
Injected packet rate average = 0.0899516 (2 samples)
	minimum = 0.0754961 (2 samples)
	maximum = 0.103955 (2 samples)
Accepted packet rate average = 0.0899516 (2 samples)
	minimum = 0.0754961 (2 samples)
	maximum = 0.103955 (2 samples)
Injected flit rate average = 0.269855 (2 samples)
	minimum = 0.0755606 (2 samples)
	maximum = 0.51969 (2 samples)
Accepted flit rate average = 0.269855 (2 samples)
	minimum = 0.099015 (2 samples)
	maximum = 0.435016 (2 samples)
Injected packet size average = 3 (2 samples)
Accepted packet size average = 3 (2 samples)
Hops average = 1 (2 samples)
----------------------------END-of-Interconnect-DETAILS-------------------------


gpgpu_simulation_time = 0 days, 1 hrs, 6 min, 40 sec (4000 sec)
gpgpu_simulation_rate = 120471 (inst/sec)
gpgpu_simulation_rate = 1737 (cycle/sec)
GPGPU-Sim: synchronize waiting for inactive GPU simulation
GPGPU-Sim API: Stream Manager State
GPGPU-Sim: detected inactive GPU simulation thread
iterated 2 times

================= Centroid Coordinates =================
0: 1.23 613.61 527.61 0.00 0.00 0.01 0.00 0.00 0.00 0.00 0.03 0.01 0.00 0.00 0.00 8.15 11.06 0.00 0.00 0.00 0.00 0.99 0.01 0.22 139.44 193.37 0.83 0.02 0.06 0.01 0.00 0.00 0.00 0.00 1.00 1.23 613.61 527.61 0.00 0.00 0.01 0.00 0.00 0.00 0.00 0.03 0.01 0.00 0.00 0.00 8.15 11.06 0.00 0.00 0.00 0.00 0.99 0.01 0.22 139.44 193.37 0.83 0.02 0.06 0.01 0.00 0.00 0.00 0.00 1.23 613.61 527.61 0.00 0.00 0.01 0.00 0.00 0.00 0.00 0.03 0.01 0.00 0.00 0.00 8.15 11.06 0.00 0.00 0.00 0.00 0.99 0.01 0.22 139.44 193.37 0.83 0.02 0.06 0.01 0.00 0.00 0.00 0.00 1.00 1.23 613.61 527.61 0.00 0.00 0.01 0.00 0.00 0.00 0.00 0.03 0.01 0.00 0.00 0.00 8.15 11.06 0.00 0.00 0.00 0.00 0.99 0.01 0.22 139.44 193.37 0.83 0.02 0.06 0.01 0.00 0.00 0.00 0.00

1: 1.45 15177.44 214.67 0.00 0.00 0.01 0.00 0.00 0.00 0.00 0.00 0.02 0.01 0.02 0.00 4.59 5.07 0.00 0.01 0.00 0.00 0.98 0.03 0.25 129.85 98.10 0.52 0.05 0.20 0.01 0.00 0.00 0.00 0.00 1.00 1.45 15177.44 214.67 0.00 0.00 0.01 0.00 0.00 0.00 0.00 0.00 0.02 0.01 0.02 0.00 4.59 5.07 0.00 0.01 0.00 0.00 0.98 0.03 0.25 129.85 98.10 0.52 0.05 0.20 0.01 0.00 0.00 0.00 0.00 1.45 15177.44 214.67 0.00 0.00 0.01 0.00 0.00 0.00 0.00 0.00 0.02 0.01 0.02 0.00 4.59 5.07 0.00 0.01 0.00 0.00 0.98 0.03 0.25 129.85 98.10 0.52 0.05 0.20 0.01 0.00 0.00 0.00 0.00 1.00 1.45 15177.44 214.67 0.00 0.00 0.01 0.00 0.00 0.00 0.00 0.00 0.02 0.01 0.02 0.00 4.59 5.07 0.00 0.01 0.00 0.00 0.98 0.03 0.25 129.85 98.10 0.52 0.05 0.20 0.01 0.00 0.00 0.00 0.00

2: 3.74 600.16 40.36 0.01 0.00 0.00 0.00 0.00 0.00 0.00 0.00 0.00 0.00 0.00 0.00 338.62 287.90 0.24 0.24 0.03 0.03 0.75 0.04 0.03 240.64 180.98 0.72 0.05 0.58 0.00 0.24 0.24 0.03 0.03 1.00 3.74 600.16 40.36 0.01 0.00 0.00 0.00 0.00 0.00 0.00 0.00 0.00 0.00 0.00 0.00 338.62 287.90 0.24 0.24 0.03 0.03 0.75 0.04 0.03 240.64 180.98 0.72 0.05 0.58 0.00 0.24 0.24 0.03 0.03 3.74 600.16 40.36 0.01 0.00 0.00 0.00 0.00 0.00 0.00 0.00 0.00 0.00 0.00 0.00 338.62 287.90 0.24 0.24 0.03 0.03 0.75 0.04 0.03 240.64 180.98 0.72 0.05 0.58 0.00 0.24 0.24 0.03 0.03 1.00 3.74 600.16 40.36 0.01 0.00 0.00 0.00 0.00 0.00 0.00 0.00 0.00 0.00 0.00 0.00 338.62 287.90 0.24 0.24 0.03 0.03 0.75 0.04 0.03 240.64 180.98 0.72 0.05 0.58 0.00 0.24 0.24 0.03 0.03

3: 21.48 303.12 20528.08 0.00 0.00 0.03 0.00 0.16 0.00 0.00 0.17 0.01 0.00 0.00 0.00 7.59 11.10 0.00 0.01 0.00 0.00 1.00 0.00 0.13 130.51 246.12 0.99 0.00 0.06 0.02 0.00 0.00 0.00 0.00 1.00 21.48 303.12 20528.08 0.00 0.00 0.03 0.00 0.16 0.00 0.00 0.17 0.01 0.00 0.00 0.00 7.59 11.10 0.00 0.01 0.00 0.00 1.00 0.00 0.13 130.51 246.12 0.99 0.00 0.06 0.02 0.00 0.00 0.00 0.00 21.48 303.12 20528.08 0.00 0.00 0.03 0.00 0.16 0.00 0.00 0.17 0.01 0.00 0.00 0.00 7.59 11.10 0.00 0.01 0.00 0.00 1.00 0.00 0.13 130.51 246.12 0.99 0.00 0.06 0.02 0.00 0.00 0.00 0.00 1.00 21.48 303.12 20528.08 0.00 0.00 0.03 0.00 0.16 0.00 0.00 0.17 0.01 0.00 0.00 0.00 7.59 11.10 0.00 0.01 0.00 0.00 1.00 0.00 0.13 130.51 246.12 0.99 0.00 0.06 0.02 0.00 0.00 0.00 0.00

4: 0.31 264.14 2561.85 0.00 0.00 0.06 0.00 0.00 0.00 0.00 0.00 0.00 0.00 0.01 0.00 9.81 13.92 0.00 0.00 0.00 0.00 1.00 0.00 0.10 132.64 245.89 0.99 0.00 0.05 0.02 0.00 0.00 0.00 0.00 1.00 0.31 264.14 2561.85 0.00 0.00 0.06 0.00 0.00 0.00 0.00 0.00 0.00 0.00 0.01 0.00 9.81 13.92 0.00 0.00 0.00 0.00 1.00 0.00 0.10 132.64 245.89 0.99 0.00 0.05 0.02 0.00 0.00 0.00 0.00 0.31 264.14 2561.85 0.00 0.00 0.06 0.00 0.00 0.00 0.00 0.00 0.00 0.00 0.01 0.00 9.81 13.92 0.00 0.00 0.00 0.00 1.00 0.00 0.10 132.64 245.89 0.99 0.00 0.05 0.02 0.00 0.00 0.00 0.00 1.00 0.31 264.14 2561.85 0.00 0.00 0.06 0.00 0.00 0.00 0.00 0.00 0.00 0.00 0.01 0.00 9.81 13.92 0.00 0.00 0.00 0.00 1.00 0.00 0.10 132.64 245.89 0.99 0.00 0.05 0.02 0.00 0.00 0.00 0.00

Number of Iteration: 1
Time for I/O: 0.00000sec
Time for Entire Clustering: 0.00000sec
Root Mean Squared Error: 55443.000
