

        *** GPGPU-Sim Simulator Version 3.2.2  [build 0] ***


GPGPU-Sim PTX: simulation mode 0 (can change with PTX_SIM_MODE_FUNC environment variable:
               1=functional simulation only, 0=detailed performance simulator)
GPGPU-Sim: Configuration options:

-network_mode                           1 # Interconnection network mode
-inter_config_file   config_fermi_islip.icnt # Interconnection network config file
-gpgpu_ptx_use_cuobjdump                    1 # Use cuobjdump to extract ptx and sass from binaries
-gpgpu_experimental_lib_support                    0 # Try to extract code from cuda libraries [Broken because of unknown cudaGetExportTable]
-gpgpu_ptx_convert_to_ptxplus                    0 # Convert SASS (native ISA) to ptxplus and run ptxplus
-gpgpu_ptx_force_max_capability                   20 # Force maximum compute capability
-gpgpu_ptx_inst_debug_to_file                    0 # Dump executed instructions' debug information to file
-gpgpu_ptx_inst_debug_file       inst_debug.txt # Executed instructions' debug output file
-gpgpu_ptx_inst_debug_thread_uid                    1 # Thread UID for executed instructions' debug output
-gpgpu_simd_model                       1 # 1 = post-dominator
-gpgpu_shader_core_pipeline              1536:32 # shader core pipeline config, i.e., {<nthread>:<warpsize>}
-gpgpu_tex_cache:l1  4:128:24,L:R:m:N:L,F:128:4,128:2 # per-shader L1 texture cache  (READ-ONLY) config  {<nsets>:<bsize>:<assoc>,<rep>:<wr>:<alloc>:<wr_alloc>,<mshr>:<N>:<merge>,<mq>:<rf>}
-gpgpu_const_cache:l1 64:64:2,L:R:f:N:L,A:2:32,4 # per-shader L1 constant memory cache  (READ-ONLY) config  {<nsets>:<bsize>:<assoc>,<rep>:<wr>:<alloc>:<wr_alloc>,<mshr>:<N>:<merge>,<mq>} 
-gpgpu_cache:il1     4:128:4,L:R:f:N:L,A:2:32,4 # shader L1 instruction cache config  {<nsets>:<bsize>:<assoc>,<rep>:<wr>:<alloc>:<wr_alloc>,<mshr>:<N>:<merge>,<mq>} 
-gpgpu_cache:dl1     64:128:2,L:L:m:N:H,A:32:8,8 # per-shader L1 data cache config  {<nsets>:<bsize>:<assoc>,<rep>:<wr>:<alloc>:<wr_alloc>,<mshr>:<N>:<merge>,<mq> | none}
-gpgpu_cache:dl1PrefL1                 none # per-shader L1 data cache config  {<nsets>:<bsize>:<assoc>,<rep>:<wr>:<alloc>:<wr_alloc>,<mshr>:<N>:<merge>,<mq> | none}
-gpgpu_cache:dl1PreShared                 none # per-shader L1 data cache config  {<nsets>:<bsize>:<assoc>,<rep>:<wr>:<alloc>:<wr_alloc>,<mshr>:<N>:<merge>,<mq> | none}
-gmem_skip_L1D                          0 # global memory access skip L1D cache (implements -Xptxas -dlcm=cg, default=no skip)
-gpgpu_perfect_mem                      0 # enable perfect memory mode (no cache miss)
-n_regfile_gating_group                    4 # group of lanes that should be read/written together)
-gpgpu_clock_gated_reg_file                    0 # enable clock gated reg file for power calculations
-gpgpu_clock_gated_lanes                    0 # enable clock gated lanes for power calculations
-gpgpu_shader_registers                32768 # Number of registers per shader core. Limits number of concurrent CTAs. (default 8192)
-gpgpu_shader_cta                       8 # Maximum number of concurrent CTAs in shader (default 8)
-gpgpu_num_cta_barriers                   16 # Maximum number of named barriers per CTA (default 16)
-gpgpu_n_clusters                      15 # number of processing clusters
-gpgpu_n_cores_per_cluster                    1 # number of simd cores per cluster
-gpgpu_n_cluster_ejection_buffer_size                    8 # number of packets in ejection buffer
-gpgpu_n_ldst_response_buffer_size                    2 # number of response packets in ld/st unit ejection buffer
-gpgpu_shmem_size                   16384 # Size of shared memory per shader core (default 16kB)
-gpgpu_shmem_size                   49152 # Size of shared memory per shader core (default 16kB)
-gpgpu_shmem_size_PrefL1                16384 # Size of shared memory per shader core (default 16kB)
-gpgpu_shmem_size_PrefShared                16384 # Size of shared memory per shader core (default 16kB)
-gpgpu_shmem_num_banks                   32 # Number of banks in the shared memory in each shader core (default 16)
-gpgpu_shmem_limited_broadcast                    0 # Limit shared memory to do one broadcast per cycle (default on)
-gpgpu_shmem_warp_parts                    1 # Number of portions a warp is divided into for shared memory bank conflict check 
-gpgpu_warpdistro_shader                   -1 # Specify which shader core to collect the warp size distribution from
-gpgpu_warp_issue_shader                    0 # Specify which shader core to collect the warp issue distribution from
-gpgpu_local_mem_map                    1 # Mapping from local memory space address to simulated GPU physical address space (default = enabled)
-gpgpu_num_reg_banks                   16 # Number of register banks (default = 8)
-gpgpu_reg_bank_use_warp_id                    0 # Use warp ID in mapping registers to banks (default = off)
-gpgpu_operand_collector_num_units_sp                    6 # number of collector units (default = 4)
-gpgpu_operand_collector_num_units_sfu                    8 # number of collector units (default = 4)
-gpgpu_operand_collector_num_units_mem                    2 # number of collector units (default = 2)
-gpgpu_operand_collector_num_units_gen                    0 # number of collector units (default = 0)
-gpgpu_operand_collector_num_in_ports_sp                    2 # number of collector unit in ports (default = 1)
-gpgpu_operand_collector_num_in_ports_sfu                    1 # number of collector unit in ports (default = 1)
-gpgpu_operand_collector_num_in_ports_mem                    1 # number of collector unit in ports (default = 1)
-gpgpu_operand_collector_num_in_ports_gen                    0 # number of collector unit in ports (default = 0)
-gpgpu_operand_collector_num_out_ports_sp                    2 # number of collector unit in ports (default = 1)
-gpgpu_operand_collector_num_out_ports_sfu                    1 # number of collector unit in ports (default = 1)
-gpgpu_operand_collector_num_out_ports_mem                    1 # number of collector unit in ports (default = 1)
-gpgpu_operand_collector_num_out_ports_gen                    0 # number of collector unit in ports (default = 0)
-gpgpu_coalesce_arch                   13 # Coalescing arch (default = 13, anything else is off for now)
-gpgpu_num_sched_per_core                    2 # Number of warp schedulers per core
-gpgpu_max_insn_issue_per_warp                    1 # Max number of instructions that can be issued per warp in one cycle by scheduler
-gpgpu_simt_core_sim_order                    1 # Select the simulation order of cores in a cluster (0=Fix, 1=Round-Robin)
-gpgpu_pipeline_widths        2,1,1,2,1,1,2 # Pipeline widths ID_OC_SP,ID_OC_SFU,ID_OC_MEM,OC_EX_SP,OC_EX_SFU,OC_EX_MEM,EX_WB
-gpgpu_num_sp_units                     2 # Number of SP units (default=1)
-gpgpu_num_sfu_units                    1 # Number of SF units (default=1)
-gpgpu_num_mem_units                    1 # Number if ldst units (default=1) WARNING: not hooked up to anything
-gpgpu_scheduler                      gto # Scheduler configuration: < lrr | gto | two_level_active > If two_level_active:<num_active_warps>:<inner_prioritization>:<outer_prioritization>For complete list of prioritization values see shader.h enum scheduler_prioritization_typeDefault: gto
-gpgpu_dram_scheduler                    1 # 0 = fifo, 1 = FR-FCFS (defaul)
-gpgpu_dram_partition_queues              8:8:8:8 # i2$:$2d:d2$:$2i
-l2_ideal                               0 # Use a ideal L2 cache that always hit
-gpgpu_cache:dl2     64:128:8,L:B:m:W:L,A:32:4,4:0,32 # unified banked L2 data cache config  {<nsets>:<bsize>:<assoc>,<rep>:<wr>:<alloc>:<wr_alloc>,<mshr>:<N>:<merge>,<mq>}
-gpgpu_cache:dl2_texture_only                    0 # L2 cache used for texture only
-gpgpu_n_mem                            6 # number of memory modules (e.g. memory controllers) in gpu
-gpgpu_n_sub_partition_per_mchannel                    2 # number of memory subpartition in each memory module
-gpgpu_n_mem_per_ctrlr                    2 # number of memory chips per memory controller
-gpgpu_memlatency_stat                   14 # track and display latency statistics 0x2 enables MC, 0x4 enables queue logs
-gpgpu_frfcfs_dram_sched_queue_size                   16 # 0 = unlimited (default); # entries per chip
-gpgpu_dram_return_queue_size                  116 # 0 = unlimited (default); # entries per chip
-gpgpu_dram_buswidth                    4 # default = 4 bytes (8 bytes per cycle at DDR)
-gpgpu_dram_burst_length                    8 # Burst length of each DRAM request (default = 4 data bus cycle)
-dram_data_command_freq_ratio                    4 # Frequency ratio between DRAM data bus and command bus (default = 2 times, i.e. DDR)
-gpgpu_dram_timing_opt nbk=16:CCD=2:RRD=6:RCD=12:RAS=28:RP=12:RC=40: CL=12:WL=4:CDLR=5:WR=12:nbkgrp=4:CCDL=3:RTPL=2 # DRAM timing parameters = {nbk:tCCD:tRRD:tRCD:tRAS:tRP:tRC:CL:WL:tCDLR:tWR:nbkgrp:tCCDL:tRTPL}
-rop_latency                          120 # ROP queue latency (default 85)
-dram_latency                         100 # DRAM latency (default 30)
-gpgpu_mem_addr_mapping dramid@8;00000000.00000000.00000000.00000000.0000RRRR.RRRRRRRR.BBBCCCCB.CCSSSSSS # mapping memory address to dram model {dramid@<start bit>;<memory address map>}
-gpgpu_mem_addr_test                    0 # run sweep test to check address mapping for aliased address
-gpgpu_mem_address_mask                    1 # 0 = old addressing mask, 1 = new addressing mask, 2 = new add. mask + flipped bank sel and chip sel bits
-gpuwattch_xml_file  gpuwattch_gtx480.xml # GPUWattch XML file
-power_simulation_enabled                    1 # Turn on power simulator (1=On, 0=Off)
-power_per_cycle_dump                    0 # Dump detailed power output each cycle
-power_trace_enabled                    0 # produce a file for the power trace (1=On, 0=Off)
-power_trace_zlevel                     6 # Compression level of the power trace output log (0=no comp, 9=highest)
-steady_power_levels_enabled                    0 # produce a file for the steady power levels (1=On, 0=Off)
-steady_state_definition                  8:4 # allowed deviation:number of samples
-gpgpu_max_cycle                        0 # terminates gpu simulation early (0 = no limit)
-gpgpu_max_insn                         0 # terminates gpu simulation early (0 = no limit)
-gpgpu_max_cta                          0 # terminates gpu simulation early (0 = no limit)
-gpgpu_runtime_stat                   500 # display runtime statistics such as dram utilization {<freq>:<flag>}
-liveness_message_freq                    1 # Minimum number of seconds between simulation liveness messages (0 = always print)
-gpgpu_flush_l1_cache                    0 # Flush L1 cache at the end of each kernel call
-gpgpu_flush_l2_cache                    0 # Flush L2 cache at the end of each kernel call
-gpgpu_deadlock_detect                    1 # Stop the simulation at deadlock (1=on (default), 0=off)
-gpgpu_ptx_instruction_classification                    0 # if enabled will classify ptx instruction types per kernel (Max 255 kernels now)
-gpgpu_ptx_sim_mode                     0 # Select between Performance (default) or Functional simulation (1)
-gpgpu_clock_domains 700.0:700.0:700.0:924.0 # Clock Domain Frequencies in MhZ {<Core Clock>:<ICNT Clock>:<L2 Clock>:<DRAM Clock>}
-gpgpu_max_concurrent_kernel                    8 # maximum kernels that can run concurrently on GPU
-gpgpu_cflog_interval                    0 # Interval between each snapshot in control flow logger
-visualizer_enabled                     0 # Turn on visualizer output (1=On, 0=Off)
-visualizer_outputfile                 NULL # Specifies the output log file for visualizer
-visualizer_zlevel                      6 # Compression level of the visualizer output log (0=no comp, 9=highest)
-trace_enabled                          0 # Turn on traces
-trace_components                    none # comma seperated list of traces to enable. Complete list found in trace_streams.tup. Default none
-trace_sampling_core                    0 # The core which is printed using CORE_DPRINTF. Default 0
-trace_sampling_memory_partition                   -1 # The memory partition which is printed using MEMPART_DPRINTF. Default -1 (i.e. all)
-enable_ptx_file_line_stats                    1 # Turn on PTX source line statistic profiling. (1 = On)
-ptx_line_stats_filename gpgpu_inst_stats.txt # Output file for PTX source line statistics.
-save_embedded_ptx                      0 # saves ptx files embedded in binary as <n>.ptx
-keep                                   0 # keep intermediate files created by GPGPU-Sim when interfacing with external programs
-gpgpu_ptx_save_converted_ptxplus                    0 # Saved converted ptxplus to a file
-ptx_opcode_latency_int         4,13,4,5,145 # Opcode latencies for integers <ADD,MAX,MUL,MAD,DIV>Default 1,1,19,25,145
-ptx_opcode_latency_fp          4,13,4,5,39 # Opcode latencies for single precision floating points <ADD,MAX,MUL,MAD,DIV>Default 1,1,1,1,30
-ptx_opcode_latency_dp         8,19,8,8,330 # Opcode latencies for double precision floating points <ADD,MAX,MUL,MAD,DIV>Default 8,8,8,8,335
-ptx_opcode_initiation_int            1,2,2,1,8 # Opcode initiation intervals for integers <ADD,MAX,MUL,MAD,DIV>Default 1,1,4,4,32
-ptx_opcode_initiation_fp            1,2,1,1,4 # Opcode initiation intervals for single precision floating points <ADD,MAX,MUL,MAD,DIV>Default 1,1,1,1,5
-ptx_opcode_initiation_dp         8,16,8,8,130 # Opcode initiation intervals for double precision floating points <ADD,MAX,MUL,MAD,DIV>Default 8,8,8,8,130
DRAM Timing Options:
nbk                                    16 # number of banks
CCD                                     2 # column to column delay
RRD                                     6 # minimal delay between activation of rows in different banks
RCD                                    12 # row to column delay
RAS                                    28 # time needed to activate row
RP                                     12 # time needed to precharge (deactivate) row
RC                                     40 # row cycle time
CDLR                                    5 # switching from write to read (changes tWTR)
WR                                     12 # last data-in to row precharge
CL                                     12 # CAS latency
WL                                      4 # Write latency
nbkgrp                                  4 # number of bank groups
CCDL                                    3 # column to column delay between accesses to different bank groups
RTPL                                    2 # read to precharge delay between accesses to different bank groups
Total number of memory sub partition = 12
addr_dec_mask[CHIP]  = 0000000000000000 	high:64 low:0
addr_dec_mask[BK]    = 000000000000e100 	high:16 low:8
addr_dec_mask[ROW]   = 000000000fff0000 	high:28 low:16
addr_dec_mask[COL]   = 0000000000001eff 	high:13 low:0
addr_dec_mask[BURST] = 000000000000003f 	high:6 low:0
sub_partition_id_mask = 0000000000000100
GPGPU-Sim uArch: clock freqs: 700000000.000000:700000000.000000:700000000.000000:924000000.000000
GPGPU-Sim uArch: clock periods: 0.00000000142857142857:0.00000000142857142857:0.00000000142857142857:0.00000000108225108225
*** Initializing Memory Statistics ***
GPGPU-Sim uArch: interconnect node map (shaderID+MemID to icntID)
GPGPU-Sim uArch: Memory nodes ID start from index: 15
GPGPU-Sim uArch:    0   1   2   3   4
GPGPU-Sim uArch:    5   6   7   8   9
GPGPU-Sim uArch:   10  11  12  13  14
GPGPU-Sim uArch:   15  16  17  18  19
GPGPU-Sim uArch:   20  21  22  23  24
GPGPU-Sim uArch:   25  26
GPGPU-Sim uArch: interconnect node reverse map (icntID to shaderID+MemID)
GPGPU-Sim uArch: Memory nodes start from ID: 15
GPGPU-Sim uArch:    0   1   2   3   4
GPGPU-Sim uArch:    5   6   7   8   9
GPGPU-Sim uArch:   10  11  12  13  14
GPGPU-Sim uArch:   15  16  17  18  19
GPGPU-Sim uArch:   20  21  22  23  24
GPGPU-Sim uArch:   25  26
2a552cef618c3eed1202856b15bdbc61  /home/scratch/adwait/applications/benchmarks/CUDA/RAY/gpgpu_ptx_sim__RAY
GPGPU-Sim uArch: performance model initialization complete.
GPGPU-Sim PTX: __cudaRegisterFatBinary, fat_cubin_handle = 1, filename=rayTracing.cu
self exe links to: /home/scratch/adwait/applications/benchmarks/CUDA/RAY/gpgpu_ptx_sim__RAY
Running md5sum using "md5sum /home/scratch/adwait/applications/benchmarks/CUDA/RAY/gpgpu_ptx_sim__RAY "
Running cuobjdump using "$CUDA_INSTALL_PATH/bin/cuobjdump -ptx -elf -sass /home/scratch/adwait/applications/benchmarks/CUDA/RAY/gpgpu_ptx_sim__RAY > _cuobjdump_complete_output_3GSJcX"
Parsing file _cuobjdump_complete_output_3GSJcX
######### cuobjdump parser ########
## Adding new section ELF
Adding arch: sm_20
Adding identifier: rayTracing.cu
## Adding new section PTX
Adding ptx filename: _cuobjdump_1.ptx
Adding arch: sm_20
Adding identifier: rayTracing.cu
Done parsing!!!
GPGPU-Sim PTX: __cudaRegisterFunction _Z6renderPjP4Nodejjff : hostFun 0x0x40d033, fat_cubin_handle = 1
GPGPU-Sim PTX: allocating stack frame region for .param "__cudaretf__Zmi6float3S_" from 0x0 to 0xc
GPGPU-Sim PTX: allocating stack frame region for .param "__cudaparmf1__Zmi6float3S_" from 0xc to 0x18
GPGPU-Sim PTX: allocating stack frame region for .param "__cudaparmf2__Zmi6float3S_" from 0x18 to 0x24
GPGPU-Sim PTX: allocating stack frame region for .param "__cudaretf__Z9normalize6float3" from 0x0 to 0xc
GPGPU-Sim PTX: allocating stack frame region for .param "__cudaparmf1__Z9normalize6float3" from 0xc to 0x18
GPGPU-Sim PTX: allocating stack frame region for .param "__cudaretf__Z18intersectionSphere5Rayon6float3f" from 0x0 to 0x4
GPGPU-Sim PTX: allocating stack frame region for .param "__cudaparmf1__Z18intersectionSphere5Rayon6float3f" from 0x4 to 0x1c
GPGPU-Sim PTX: allocating stack frame region for .param "__cudaparmf2__Z18intersectionSphere5Rayon6float3f" from 0x1c to 0x28
GPGPU-Sim PTX: allocating stack frame region for .param "__cudaparmf3__Z18intersectionSphere5Rayon6float3f" from 0x28 to 0x2c
GPGPU-Sim PTX: allocating stack frame region for .param "__cudaretf__Z16intersectionPlan5Rayon6float3S0_" from 0x0 to 0x4
GPGPU-Sim PTX: allocating stack frame region for .param "__cudaparmf1__Z16intersectionPlan5Rayon6float3S0_" from 0x4 to 0x1c
GPGPU-Sim PTX: allocating stack frame region for .param "__cudaparmf2__Z16intersectionPlan5Rayon6float3S0_" from 0x1c to 0x28
GPGPU-Sim PTX: allocating stack frame region for .param "__cudaparmf3__Z16intersectionPlan5Rayon6float3S0_" from 0x28 to 0x34
GPGPU-Sim PTX: allocating stack frame region for .param "__cudaretf__Z10getNormale6float3S_" from 0x0 to 0xc
GPGPU-Sim PTX: allocating stack frame region for .param "__cudaparmf1__Z10getNormale6float3S_" from 0xc to 0x18
GPGPU-Sim PTX: allocating stack frame region for .param "__cudaparmf2__Z10getNormale6float3S_" from 0x18 to 0x24
GPGPU-Sim PTX: allocating stack frame region for .param "__cudaretf__Z11getNormaleP6float3" from 0x0 to 0xc
GPGPU-Sim PTX: allocating stack frame region for .param "__cudaparmf1__Z11getNormaleP6float3" from 0xc to 0x18
GPGPU-Sim PTX: allocating stack frame region for .param "__cudaretf__Z14rgbaFloatToInt6float4" from 0x0 to 0x4
GPGPU-Sim PTX: allocating stack frame region for .param "__cudaparmf1__Z14rgbaFloatToInt6float4" from 0x4 to 0x14
GPGPU-Sim PTX: allocating stack frame region for .param "__cudaretf__Z12notShadowRayP4Node6float3S1_f" from 0x0 to 0x4
GPGPU-Sim PTX: allocating stack frame region for .param "__cudaparmf1__Z12notShadowRayP4Node6float3S1_f" from 0x4 to 0xc
GPGPU-Sim PTX: allocating stack frame region for .param "__cudaparmf2__Z12notShadowRayP4Node6float3S1_f" from 0xc to 0x18
GPGPU-Sim PTX: allocating stack frame region for .param "__cudaparmf3__Z12notShadowRayP4Node6float3S1_f" from 0x18 to 0x24
GPGPU-Sim PTX: allocating stack frame region for .param "__cudaparmf4__Z12notShadowRayP4Node6float3S1_f" from 0x24 to 0x28
GPGPU-Sim PTX: allocating stack frame region for .param "__cudaretf__Z15float2int_pow20f" from 0x0 to 0x4
GPGPU-Sim PTX: allocating stack frame region for .param "__cudaparmf1__Z15float2int_pow20f" from 0x4 to 0x8
GPGPU-Sim PTX: allocating stack frame region for .param "__cudaretf__Z15float2int_pow50f" from 0x0 to 0x4
GPGPU-Sim PTX: allocating stack frame region for .param "__cudaparmf1__Z15float2int_pow50f" from 0x4 to 0x8
GPGPU-Sim PTX: allocating stack frame region for .param "__cudaparmf1__ZN4dim3C1Ejjj" from 0x0 to 0x8
GPGPU-Sim PTX: allocating stack frame region for .param "__cudaparmf2__ZN4dim3C1Ejjj" from 0x8 to 0xc
GPGPU-Sim PTX: allocating stack frame region for .param "__cudaparmf3__ZN4dim3C1Ejjj" from 0xc to 0x10
GPGPU-Sim PTX: allocating stack frame region for .param "__cudaparmf4__ZN4dim3C1Ejjj" from 0x10 to 0x14
GPGPU-Sim PTX: instruction assembly for function '_Zmi6float3S_'...   done.
GPGPU-Sim PTX: finding reconvergence points for '_Zmi6float3S_'...
GPGPU-Sim PTX: Finding dominators for '_Zmi6float3S_'...
GPGPU-Sim PTX: Finding immediate dominators for '_Zmi6float3S_'...
GPGPU-Sim PTX: Finding postdominators for '_Zmi6float3S_'...
GPGPU-Sim PTX: Finding immediate postdominators for '_Zmi6float3S_'...
GPGPU-Sim PTX: pre-decoding instructions for '_Zmi6float3S_'...
GPGPU-Sim PTX: reconvergence points for _Zmi6float3S_...
GPGPU-Sim PTX: ... end of reconvergence points for _Zmi6float3S_
GPGPU-Sim PTX: ... done pre-decoding instructions for '_Zmi6float3S_'.
GPGPU-Sim PTX: instruction assembly for function '_Z9normalize6float3'...   done.
GPGPU-Sim PTX: finding reconvergence points for '_Z9normalize6float3'...
GPGPU-Sim PTX: Finding dominators for '_Z9normalize6float3'...
GPGPU-Sim PTX: Finding immediate dominators for '_Z9normalize6float3'...
GPGPU-Sim PTX: Finding postdominators for '_Z9normalize6float3'...
GPGPU-Sim PTX: Finding immediate postdominators for '_Z9normalize6float3'...
GPGPU-Sim PTX: pre-decoding instructions for '_Z9normalize6float3'...
GPGPU-Sim PTX: reconvergence points for _Z9normalize6float3...
GPGPU-Sim PTX: ... end of reconvergence points for _Z9normalize6float3
GPGPU-Sim PTX: ... done pre-decoding instructions for '_Z9normalize6float3'.
GPGPU-Sim PTX: instruction assembly for function '_Z18intersectionSphere5Rayon6float3f'...   done.
GPGPU-Sim PTX: finding reconvergence points for '_Z18intersectionSphere5Rayon6float3f'...
GPGPU-Sim PTX: Finding dominators for '_Z18intersectionSphere5Rayon6float3f'...
GPGPU-Sim PTX: Finding immediate dominators for '_Z18intersectionSphere5Rayon6float3f'...
GPGPU-Sim PTX: Finding postdominators for '_Z18intersectionSphere5Rayon6float3f'...
GPGPU-Sim PTX: Finding immediate postdominators for '_Z18intersectionSphere5Rayon6float3f'...
GPGPU-Sim PTX: pre-decoding instructions for '_Z18intersectionSphere5Rayon6float3f'...
GPGPU-Sim PTX: reconvergence points for _Z18intersectionSphere5Rayon6float3f...
GPGPU-Sim PTX:  1 (potential) branch divergence @  PC=0x250 (_1.ptx:173) @%p2 bra $Lt_2_3074;
GPGPU-Sim PTX:    immediate post dominator      @  PC=0x2c0 (_1.ptx:193) mov.f32 %f39, %f32;
GPGPU-Sim PTX:  2 (potential) branch divergence @  PC=0x260 (_1.ptx:175) bra.uni $Lt_2_2818;
GPGPU-Sim PTX:    immediate post dominator      @  PC=0x2c0 (_1.ptx:193) mov.f32 %f39, %f32;
GPGPU-Sim PTX:  3 (potential) branch divergence @  PC=0x280 (_1.ptx:180) @!%p3 bra $Lt_2_3586;
GPGPU-Sim PTX:    immediate post dominator      @  PC=0x2c0 (_1.ptx:193) mov.f32 %f39, %f32;
GPGPU-Sim PTX:  4 (potential) branch divergence @  PC=0x290 (_1.ptx:182) bra.uni $Lt_2_3330;
GPGPU-Sim PTX:    immediate post dominator      @  PC=0x2c0 (_1.ptx:193) mov.f32 %f39, %f32;
GPGPU-Sim PTX: ... end of reconvergence points for _Z18intersectionSphere5Rayon6float3f
GPGPU-Sim PTX: ... done pre-decoding instructions for '_Z18intersectionSphere5Rayon6float3f'.
GPGPU-Sim PTX: instruction assembly for function '_Z16intersectionPlan5Rayon6float3S0_'...   done.
GPGPU-Sim PTX: finding reconvergence points for '_Z16intersectionPlan5Rayon6float3S0_'...
GPGPU-Sim PTX: Finding dominators for '_Z16intersectionPlan5Rayon6float3S0_'...
GPGPU-Sim PTX: Finding immediate dominators for '_Z16intersectionPlan5Rayon6float3S0_'...
GPGPU-Sim PTX: Finding postdominators for '_Z16intersectionPlan5Rayon6float3S0_'...
GPGPU-Sim PTX: Finding immediate postdominators for '_Z16intersectionPlan5Rayon6float3S0_'...
GPGPU-Sim PTX: pre-decoding instructions for '_Z16intersectionPlan5Rayon6float3S0_'...
GPGPU-Sim PTX: reconvergence points for _Z16intersectionPlan5Rayon6float3S0_...
GPGPU-Sim PTX:  1 (potential) branch divergence @  PC=0x320 (_1.ptx:214) @!%p1 bra $Lt_3_2050;
GPGPU-Sim PTX:    immediate post dominator      @  PC=0x368 (_1.ptx:227) mov.f32 %f14, %f9;
GPGPU-Sim PTX:  2 (potential) branch divergence @  PC=0x330 (_1.ptx:216) bra.uni $Lt_3_1794;
GPGPU-Sim PTX:    immediate post dominator      @  PC=0x368 (_1.ptx:227) mov.f32 %f14, %f9;
GPGPU-Sim PTX: ... end of reconvergence points for _Z16intersectionPlan5Rayon6float3S0_
GPGPU-Sim PTX: ... done pre-decoding instructions for '_Z16intersectionPlan5Rayon6float3S0_'.
GPGPU-Sim PTX: instruction assembly for function '_Z10getNormale6float3S_'...   done.
GPGPU-Sim PTX: finding reconvergence points for '_Z10getNormale6float3S_'...
GPGPU-Sim PTX: Finding dominators for '_Z10getNormale6float3S_'...
GPGPU-Sim PTX: Finding immediate dominators for '_Z10getNormale6float3S_'...
GPGPU-Sim PTX: Finding postdominators for '_Z10getNormale6float3S_'...
GPGPU-Sim PTX: Finding immediate postdominators for '_Z10getNormale6float3S_'...
GPGPU-Sim PTX: pre-decoding instructions for '_Z10getNormale6float3S_'...
GPGPU-Sim PTX: reconvergence points for _Z10getNormale6float3S_...
GPGPU-Sim PTX: ... end of reconvergence points for _Z10getNormale6float3S_
GPGPU-Sim PTX: ... done pre-decoding instructions for '_Z10getNormale6float3S_'.
GPGPU-Sim PTX: instruction assembly for function '_Z11getNormaleP6float3'...   done.
GPGPU-Sim PTX: finding reconvergence points for '_Z11getNormaleP6float3'...
GPGPU-Sim PTX: Finding dominators for '_Z11getNormaleP6float3'...
GPGPU-Sim PTX: Finding immediate dominators for '_Z11getNormaleP6float3'...
GPGPU-Sim PTX: Finding postdominators for '_Z11getNormaleP6float3'...
GPGPU-Sim PTX: Finding immediate postdominators for '_Z11getNormaleP6float3'...
GPGPU-Sim PTX: pre-decoding instructions for '_Z11getNormaleP6float3'...
GPGPU-Sim PTX: reconvergence points for _Z11getNormaleP6float3...
GPGPU-Sim PTX: ... end of reconvergence points for _Z11getNormaleP6float3
GPGPU-Sim PTX: ... done pre-decoding instructions for '_Z11getNormaleP6float3'.
GPGPU-Sim PTX: instruction assembly for function '_Z14rgbaFloatToInt6float4'...   done.
GPGPU-Sim PTX: finding reconvergence points for '_Z14rgbaFloatToInt6float4'...
GPGPU-Sim PTX: Finding dominators for '_Z14rgbaFloatToInt6float4'...
GPGPU-Sim PTX: Finding immediate dominators for '_Z14rgbaFloatToInt6float4'...
GPGPU-Sim PTX: Finding postdominators for '_Z14rgbaFloatToInt6float4'...
GPGPU-Sim PTX: Finding immediate postdominators for '_Z14rgbaFloatToInt6float4'...
GPGPU-Sim PTX: pre-decoding instructions for '_Z14rgbaFloatToInt6float4'...
GPGPU-Sim PTX: reconvergence points for _Z14rgbaFloatToInt6float4...
GPGPU-Sim PTX: ... end of reconvergence points for _Z14rgbaFloatToInt6float4
GPGPU-Sim PTX: ... done pre-decoding instructions for '_Z14rgbaFloatToInt6float4'.
GPGPU-Sim PTX: allocating global region for "cnode" from 0x100 to 0x1a0 (global memory space)
GPGPU-Sim PTX: instruction assembly for function '_Z12notShadowRayP4Node6float3S1_f'...   done.
GPGPU-Sim PTX: finding reconvergence points for '_Z12notShadowRayP4Node6float3S1_f'...
GPGPU-Sim PTX: Finding dominators for '_Z12notShadowRayP4Node6float3S1_f'...
GPGPU-Sim PTX: Finding immediate dominators for '_Z12notShadowRayP4Node6float3S1_f'...
GPGPU-Sim PTX: Finding postdominators for '_Z12notShadowRayP4Node6float3S1_f'...
GPGPU-Sim PTX: Finding immediate postdominators for '_Z12notShadowRayP4Node6float3S1_f'...
GPGPU-Sim PTX: pre-decoding instructions for '_Z12notShadowRayP4Node6float3S1_f'...
GPGPU-Sim PTX: reconvergence points for _Z12notShadowRayP4Node6float3S1_f...
GPGPU-Sim PTX:  1 (potential) branch divergence @  PC=0x638 (_1.ptx:364) @%p1 bra $Lt_7_8450;
GPGPU-Sim PTX:    immediate post dominator      @  PC=0x828 (_1.ptx:441) mov.f32 %f58, 0f00000000;    // 0
GPGPU-Sim PTX:  2 (potential) branch divergence @  PC=0x658 (_1.ptx:369) @!%p2 bra $Lt_7_8962;
GPGPU-Sim PTX:    immediate post dominator      @  PC=0x6b8 (_1.ptx:385) mov.f32 %f28, %f20;
GPGPU-Sim PTX:  3 (potential) branch divergence @  PC=0x668 (_1.ptx:371) bra.uni $Lt_7_8706;
GPGPU-Sim PTX:    immediate post dominator      @  PC=0x6b8 (_1.ptx:385) mov.f32 %f28, %f20;
GPGPU-Sim PTX:  4 (potential) branch divergence @  PC=0x6c0 (_1.ptx:386) bra.uni $Lt_7_8194;
GPGPU-Sim PTX:    immediate post dominator      @  PC=0x828 (_1.ptx:441) mov.f32 %f58, 0f00000000;    // 0
GPGPU-Sim PTX:  5 (potential) branch divergence @  PC=0x7b0 (_1.ptx:418) @%p5 bra $Lt_7_9474;
GPGPU-Sim PTX:    immediate post dominator      @  PC=0x820 (_1.ptx:438) mov.f32 %f28, %f51;
GPGPU-Sim PTX:  6 (potential) branch divergence @  PC=0x7c0 (_1.ptx:420) bra.uni $Lt_7_9730;
GPGPU-Sim PTX:    immediate post dominator      @  PC=0x820 (_1.ptx:438) mov.f32 %f28, %f51;
GPGPU-Sim PTX:  7 (potential) branch divergence @  PC=0x7e0 (_1.ptx:425) @!%p6 bra $Lt_7_9986;
GPGPU-Sim PTX:    immediate post dominator      @  PC=0x820 (_1.ptx:438) mov.f32 %f28, %f51;
GPGPU-Sim PTX:  8 (potential) branch divergence @  PC=0x7f0 (_1.ptx:427) bra.uni $Lt_7_9730;
GPGPU-Sim PTX:    immediate post dominator      @  PC=0x820 (_1.ptx:438) mov.f32 %f28, %f51;
GPGPU-Sim PTX:  9 (potential) branch divergence @  PC=0x838 (_1.ptx:443) @!%p7 bra $Lt_7_10242;
GPGPU-Sim PTX:    immediate post dominator      @  PC=0x8e8 (_1.ptx:468) add.s32 %r1, %r1, 1;
GPGPU-Sim PTX: 10 (potential) branch divergence @  PC=0x8d8 (_1.ptx:463) @!%p8 bra $Lt_7_10242;
GPGPU-Sim PTX:    immediate post dominator      @  PC=0x8e8 (_1.ptx:468) add.s32 %r1, %r1, 1;
GPGPU-Sim PTX: 11 (potential) branch divergence @  PC=0x908 (_1.ptx:472) @%p9 bra $Lt_7_10754;
GPGPU-Sim PTX:    immediate post dominator      @  PC=0x960 (_1.ptx:486) selp.s32 %r10, 1, 0, %p11;
GPGPU-Sim PTX: 12 (potential) branch divergence @  PC=0x930 (_1.ptx:477) @%p10 bra $L_7_7170;
GPGPU-Sim PTX:    immediate post dominator      @  PC=0x960 (_1.ptx:486) selp.s32 %r10, 1, 0, %p11;
GPGPU-Sim PTX: 13 (potential) branch divergence @  PC=0x938 (_1.ptx:478) bra.uni $L_7_7938;
GPGPU-Sim PTX:    immediate post dominator      @  PC=0x960 (_1.ptx:486) selp.s32 %r10, 1, 0, %p11;
GPGPU-Sim PTX: ... end of reconvergence points for _Z12notShadowRayP4Node6float3S1_f
GPGPU-Sim PTX: ... done pre-decoding instructions for '_Z12notShadowRayP4Node6float3S1_f'.
GPGPU-Sim PTX: instruction assembly for function '_Z15float2int_pow20f'...   done.
GPGPU-Sim PTX: finding reconvergence points for '_Z15float2int_pow20f'...
GPGPU-Sim PTX: Finding dominators for '_Z15float2int_pow20f'...
GPGPU-Sim PTX: Finding immediate dominators for '_Z15float2int_pow20f'...
GPGPU-Sim PTX: Finding postdominators for '_Z15float2int_pow20f'...
GPGPU-Sim PTX: Finding immediate postdominators for '_Z15float2int_pow20f'...
GPGPU-Sim PTX: pre-decoding instructions for '_Z15float2int_pow20f'...
GPGPU-Sim PTX: reconvergence points for _Z15float2int_pow20f...
GPGPU-Sim PTX: ... end of reconvergence points for _Z15float2int_pow20f
GPGPU-Sim PTX: ... done pre-decoding instructions for '_Z15float2int_pow20f'.
GPGPU-Sim PTX: instruction assembly for function '_Z15float2int_pow50f'...   done.
GPGPU-Sim PTX: finding reconvergence points for '_Z15float2int_pow50f'...
GPGPU-Sim PTX: Finding dominators for '_Z15float2int_pow50f'...
GPGPU-Sim PTX: Finding immediate dominators for '_Z15float2int_pow50f'...
GPGPU-Sim PTX: Finding postdominators for '_Z15float2int_pow50f'...
GPGPU-Sim PTX: Finding immediate postdominators for '_Z15float2int_pow50f'...
GPGPU-Sim PTX: pre-decoding instructions for '_Z15float2int_pow50f'...
GPGPU-Sim PTX: reconvergence points for _Z15float2int_pow50f...
GPGPU-Sim PTX: ... end of reconvergence points for _Z15float2int_pow50f
GPGPU-Sim PTX: ... done pre-decoding instructions for '_Z15float2int_pow50f'.
GPGPU-Sim PTX: allocating constant region for "MView" from 0x200 to 0x230 (global memory space) 1
GPGPU-Sim PTX: allocating stack frame region for .local "__cuda___cuda_local_var_36206_9_non_const_pile_32240" from 0x0 to 0x50
GPGPU-Sim PTX: instruction assembly for function '_Z6renderPjP4Nodejjff'...   done.
GPGPU-Sim PTX: finding reconvergence points for '_Z6renderPjP4Nodejjff'...
GPGPU-Sim PTX: Finding dominators for '_Z6renderPjP4Nodejjff'...
GPGPU-Sim PTX: Finding immediate dominators for '_Z6renderPjP4Nodejjff'...
GPGPU-Sim PTX: Finding postdominators for '_Z6renderPjP4Nodejjff'...
GPGPU-Sim PTX: Finding immediate postdominators for '_Z6renderPjP4Nodejjff'...
GPGPU-Sim PTX: pre-decoding instructions for '_Z6renderPjP4Nodejjff'...
GPGPU-Sim PTX: reconvergence points for _Z6renderPjP4Nodejjff...
GPGPU-Sim PTX:  1 (potential) branch divergence @  PC=0xdb0 (_1.ptx:663) @%p1 bra $Lt_10_44034;
GPGPU-Sim PTX:    immediate post dominator      @  PC=0x2370 (_1.ptx:1495) exit;
GPGPU-Sim PTX:  2 (potential) branch divergence @  PC=0x1028 (_1.ptx:751) @%p2 bra $Lt_10_45570;
GPGPU-Sim PTX:    immediate post dominator      @  PC=0x11b8 (_1.ptx:815) mov.f32 %f108, 0f00000000;   // 0
GPGPU-Sim PTX:  3 (potential) branch divergence @  PC=0x1048 (_1.ptx:756) @!%p3 bra $Lt_10_46082;
GPGPU-Sim PTX:    immediate post dominator      @  PC=0x1090 (_1.ptx:769) mov.f32 %f87, %f82;
GPGPU-Sim PTX:  4 (potential) branch divergence @  PC=0x1058 (_1.ptx:758) bra.uni $Lt_10_45826;
GPGPU-Sim PTX:    immediate post dominator      @  PC=0x1090 (_1.ptx:769) mov.f32 %f87, %f82;
GPGPU-Sim PTX:  5 (potential) branch divergence @  PC=0x1098 (_1.ptx:770) bra.uni $Lt_10_45314;
GPGPU-Sim PTX:    immediate post dominator      @  PC=0x11b8 (_1.ptx:815) mov.f32 %f108, 0f00000000;   // 0
GPGPU-Sim PTX:  6 (potential) branch divergence @  PC=0x1140 (_1.ptx:793) @%p6 bra $Lt_10_46594;
GPGPU-Sim PTX:    immediate post dominator      @  PC=0x11b0 (_1.ptx:813) mov.f32 %f87, %f101;
GPGPU-Sim PTX:  7 (potential) branch divergence @  PC=0x1150 (_1.ptx:795) bra.uni $Lt_10_46850;
GPGPU-Sim PTX:    immediate post dominator      @  PC=0x11b0 (_1.ptx:813) mov.f32 %f87, %f101;
GPGPU-Sim PTX:  8 (potential) branch divergence @  PC=0x1170 (_1.ptx:800) @!%p7 bra $Lt_10_47106;
GPGPU-Sim PTX:    immediate post dominator      @  PC=0x11b0 (_1.ptx:813) mov.f32 %f87, %f101;
GPGPU-Sim PTX:  9 (potential) branch divergence @  PC=0x1180 (_1.ptx:802) bra.uni $Lt_10_46850;
GPGPU-Sim PTX:    immediate post dominator      @  PC=0x11b0 (_1.ptx:813) mov.f32 %f87, %f101;
GPGPU-Sim PTX: 10 (potential) branch divergence @  PC=0x11f8 (_1.ptx:823) @%p8 bra $Lt_10_47362;
GPGPU-Sim PTX:    immediate post dominator      @  PC=0x1210 (_1.ptx:829) add.s32 %r25, %r25, 1;
GPGPU-Sim PTX: 11 (potential) branch divergence @  PC=0x1230 (_1.ptx:833) @%p9 bra $Lt_10_45058;
GPGPU-Sim PTX:    immediate post dominator      @  PC=0x1238 (_1.ptx:834) mov.f32 %f109, 0f00000000;   // 0
GPGPU-Sim PTX: 12 (potential) branch divergence @  PC=0x1280 (_1.ptx:843) @%p10 bra $Lt_10_48130;
GPGPU-Sim PTX:    immediate post dominator      @  PC=0x2140 (_1.ptx:1416) add.s32 %r23, %r23, 1;
GPGPU-Sim PTX: 13 (potential) branch divergence @  PC=0x1330 (_1.ptx:868) @%p11 bra $Lt_10_48898;
GPGPU-Sim PTX:    immediate post dominator      @  PC=0x13b8 (_1.ptx:888) sub.f32 %f136, %f21, %f119;
GPGPU-Sim PTX: 14 (potential) branch divergence @  PC=0x1350 (_1.ptx:873) bra.uni $Lt_10_48642;
GPGPU-Sim PTX:    immediate post dominator      @  PC=0x13b8 (_1.ptx:888) sub.f32 %f136, %f21, %f119;
GPGPU-Sim PTX: 15 (potential) branch divergence @  PC=0x1430 (_1.ptx:903) @!%p12 bra $Lt_10_49410;
GPGPU-Sim PTX:    immediate post dominator      @  PC=0x1470 (_1.ptx:915) mov.f32 %f153, 0f3d4ccccd;   // 0.05
GPGPU-Sim PTX: 16 (potential) branch divergence @  PC=0x1450 (_1.ptx:908) bra.uni $Lt_10_49154;
GPGPU-Sim PTX:    immediate post dominator      @  PC=0x1470 (_1.ptx:915) mov.f32 %f153, 0f3d4ccccd;   // 0.05
GPGPU-Sim PTX: 17 (potential) branch divergence @  PC=0x1578 (_1.ptx:949) @!%p13 bra $Lt_10_58114;
GPGPU-Sim PTX:    immediate post dominator      @  PC=0x2080 (_1.ptx:1388) add.f32 %f399, %f126, %f126;
GPGPU-Sim PTX: 18 (potential) branch divergence @  PC=0x15c0 (_1.ptx:961) @%p14 bra $Lt_10_49922;
GPGPU-Sim PTX:    immediate post dominator      @  PC=0x17b0 (_1.ptx:1039) mov.f32 %f221, 0f00000000;   // 0
GPGPU-Sim PTX: 19 (potential) branch divergence @  PC=0x15e0 (_1.ptx:966) @!%p15 bra $Lt_10_50434;
GPGPU-Sim PTX:    immediate post dominator      @  PC=0x1638 (_1.ptx:982) mov.f32 %f190, %f183;
GPGPU-Sim PTX: 20 (potential) branch divergence @  PC=0x15f0 (_1.ptx:968) bra.uni $Lt_10_50178;
GPGPU-Sim PTX:    immediate post dominator      @  PC=0x1638 (_1.ptx:982) mov.f32 %f190, %f183;
GPGPU-Sim PTX: 21 (potential) branch divergence @  PC=0x1640 (_1.ptx:983) bra.uni $Lt_10_49666;
GPGPU-Sim PTX:    immediate post dominator      @  PC=0x17b0 (_1.ptx:1039) mov.f32 %f221, 0f00000000;   // 0
GPGPU-Sim PTX: 22 (potential) branch divergence @  PC=0x1738 (_1.ptx:1016) @%p18 bra $Lt_10_50946;
GPGPU-Sim PTX:    immediate post dominator      @  PC=0x17a8 (_1.ptx:1036) mov.f32 %f190, %f214;
GPGPU-Sim PTX: 23 (potential) branch divergence @  PC=0x1748 (_1.ptx:1018) bra.uni $Lt_10_51202;
GPGPU-Sim PTX:    immediate post dominator      @  PC=0x17a8 (_1.ptx:1036) mov.f32 %f190, %f214;
GPGPU-Sim PTX: 24 (potential) branch divergence @  PC=0x1768 (_1.ptx:1023) @!%p19 bra $Lt_10_51458;
GPGPU-Sim PTX:    immediate post dominator      @  PC=0x17a8 (_1.ptx:1036) mov.f32 %f190, %f214;
GPGPU-Sim PTX: 25 (potential) branch divergence @  PC=0x1778 (_1.ptx:1025) bra.uni $Lt_10_51202;
GPGPU-Sim PTX:    immediate post dominator      @  PC=0x17a8 (_1.ptx:1036) mov.f32 %f190, %f214;
GPGPU-Sim PTX: 26 (potential) branch divergence @  PC=0x17c0 (_1.ptx:1041) @!%p20 bra $Lt_10_58370;
GPGPU-Sim PTX:    immediate post dominator      @  PC=0x1828 (_1.ptx:1057) add.s32 %r50, %r50, 1;
GPGPU-Sim PTX: 27 (potential) branch divergence @  PC=0x1818 (_1.ptx:1052) @!%p21 bra $Lt_10_58370;
GPGPU-Sim PTX:    immediate post dominator      @  PC=0x1828 (_1.ptx:1057) add.s32 %r50, %r50, 1;
GPGPU-Sim PTX: 28 (potential) branch divergence @  PC=0x1848 (_1.ptx:1061) @%p22 bra $Lt_10_58882;
GPGPU-Sim PTX:    immediate post dominator      @  PC=0x1880 (_1.ptx:1071) @!%p23 bra $Lt_10_58114;
GPGPU-Sim PTX: 29 (potential) branch divergence @  PC=0x1860 (_1.ptx:1064) @%p23 bra $L_10_42498;
GPGPU-Sim PTX:    immediate post dominator      @  PC=0x1880 (_1.ptx:1071) @!%p23 bra $Lt_10_58114;
GPGPU-Sim PTX: 30 (potential) branch divergence @  PC=0x1868 (_1.ptx:1065) bra.uni $L_10_43266;
GPGPU-Sim PTX:    immediate post dominator      @  PC=0x1880 (_1.ptx:1071) @!%p23 bra $Lt_10_58114;
GPGPU-Sim PTX: 31 (potential) branch divergence @  PC=0x1880 (_1.ptx:1071) @!%p23 bra $Lt_10_58114;
GPGPU-Sim PTX:    immediate post dominator      @  PC=0x2080 (_1.ptx:1388) add.f32 %f399, %f126, %f126;
GPGPU-Sim PTX: 32 (potential) branch divergence @  PC=0x19c8 (_1.ptx:1115) @!%p24 bra $Lt_10_51714;
GPGPU-Sim PTX:    immediate post dominator      @  PC=0x2040 (_1.ptx:1375) mov.f32 %f394, 0f3f4ccccd;   // 0.8
GPGPU-Sim PTX: 33 (potential) branch divergence @  PC=0x19d8 (_1.ptx:1118) bra.uni $LDWendi___isnanf_192_1;
GPGPU-Sim PTX:    immediate post dominator      @  PC=0x2040 (_1.ptx:1375) mov.f32 %f394, 0f3f4ccccd;   // 0.8
GPGPU-Sim PTX: 34 (potential) branch divergence @  PC=0x19f8 (_1.ptx:1124) @!%p25 bra $Lt_10_7682;
GPGPU-Sim PTX:    immediate post dominator      @  PC=0x2040 (_1.ptx:1375) mov.f32 %f394, 0f3f4ccccd;   // 0.8
GPGPU-Sim PTX: 35 (potential) branch divergence @  PC=0x1a00 (_1.ptx:1125) bra.uni $Lt_10_7938;
GPGPU-Sim PTX:    immediate post dominator      @  PC=0x1a20 (_1.ptx:1133) mov.f32 %f272, 0f7f800000;   // ((1.0F)/(0.0F))
GPGPU-Sim PTX: 36 (potential) branch divergence @  PC=0x1a18 (_1.ptx:1130) bra.uni $LDWendi___isnanf_192_1;
GPGPU-Sim PTX:    immediate post dominator      @  PC=0x2040 (_1.ptx:1375) mov.f32 %f394, 0f3f4ccccd;   // 0.8
GPGPU-Sim PTX: 37 (potential) branch divergence @  PC=0x1a30 (_1.ptx:1135) @!%p26 bra $Lt_10_52226;
GPGPU-Sim PTX:    immediate post dominator      @  PC=0x2040 (_1.ptx:1375) mov.f32 %f394, 0f3f4ccccd;   // 0.8
GPGPU-Sim PTX: 38 (potential) branch divergence @  PC=0x1a40 (_1.ptx:1138) bra.uni $LDWendi___isnanf_192_1;
GPGPU-Sim PTX:    immediate post dominator      @  PC=0x2040 (_1.ptx:1375) mov.f32 %f394, 0f3f4ccccd;   // 0.8
GPGPU-Sim PTX: 39 (potential) branch divergence @  PC=0x1a58 (_1.ptx:1142) @!%p27 bra $Lt_10_52738;
GPGPU-Sim PTX:    immediate post dominator      @  PC=0x2040 (_1.ptx:1375) mov.f32 %f394, 0f3f4ccccd;   // 0.8
GPGPU-Sim PTX: 40 (potential) branch divergence @  PC=0x1ab8 (_1.ptx:1155) bra.uni $LDWendi___isnanf_192_1;
GPGPU-Sim PTX:    immediate post dominator      @  PC=0x2040 (_1.ptx:1375) mov.f32 %f394, 0f3f4ccccd;   // 0.8
GPGPU-Sim PTX: 41 (potential) branch divergence @  PC=0x1ad0 (_1.ptx:1159) @!%p29 bra $Lt_10_53250;
GPGPU-Sim PTX:    immediate post dominator      @  PC=0x2040 (_1.ptx:1375) mov.f32 %f394, 0f3f4ccccd;   // 0.8
GPGPU-Sim PTX: 42 (potential) branch divergence @  PC=0x1b20 (_1.ptx:1170) @!%p30 bra $Lt_10_53762;
GPGPU-Sim PTX:    immediate post dominator      @  PC=0x1b40 (_1.ptx:1177) mov.f32 %f268, %f284;
GPGPU-Sim PTX: 43 (potential) branch divergence @  PC=0x1b48 (_1.ptx:1178) bra.uni $LDWendi___isnanf_192_1;
GPGPU-Sim PTX:    immediate post dominator      @  PC=0x2040 (_1.ptx:1375) mov.f32 %f394, 0f3f4ccccd;   // 0.8
GPGPU-Sim PTX: 44 (potential) branch divergence @  PC=0x1b60 (_1.ptx:1183) @!%p31 bra $Lt_10_59394;
GPGPU-Sim PTX:    immediate post dominator      @  PC=0x2040 (_1.ptx:1375) mov.f32 %f394, 0f3f4ccccd;   // 0.8
GPGPU-Sim PTX: 45 (potential) branch divergence @  PC=0x1b88 (_1.ptx:1188) @!%p32 bra $Lt_10_59394;
GPGPU-Sim PTX:    immediate post dominator      @  PC=0x2040 (_1.ptx:1375) mov.f32 %f394, 0f3f4ccccd;   // 0.8
GPGPU-Sim PTX: 46 (potential) branch divergence @  PC=0x1ba0 (_1.ptx:1192) bra.uni $LDWendi___isnanf_192_1;
GPGPU-Sim PTX:    immediate post dominator      @  PC=0x2040 (_1.ptx:1375) mov.f32 %f394, 0f3f4ccccd;   // 0.8
GPGPU-Sim PTX: 47 (potential) branch divergence @  PC=0x1bd8 (_1.ptx:1202) @%p33 bra $Lt_10_54530;
GPGPU-Sim PTX:    immediate post dominator      @  PC=0x1c20 (_1.ptx:1216) sub.s32 %r64, %r64, 127;
GPGPU-Sim PTX: 48 (potential) branch divergence @  PC=0x1c10 (_1.ptx:1211) bra.uni $Lt_10_54274;
GPGPU-Sim PTX:    immediate post dominator      @  PC=0x1c20 (_1.ptx:1216) sub.s32 %r64, %r64, 127;
GPGPU-Sim PTX: 49 (potential) branch divergence @  PC=0x1c58 (_1.ptx:1224) @!%p34 bra $Lt_10_54786;
GPGPU-Sim PTX:    immediate post dominator      @  PC=0x1c78 (_1.ptx:1232) mov.f32 %f302, 0fbf800000;   // -1
GPGPU-Sim PTX: 50 (potential) branch divergence @  PC=0x1eb0 (_1.ptx:1312) @%p35 bra $Lt_10_55298;
GPGPU-Sim PTX:    immediate post dominator      @  PC=0x1ed8 (_1.ptx:1321) mov.f32 %f367, %f365;
GPGPU-Sim PTX: 51 (potential) branch divergence @  PC=0x1f98 (_1.ptx:1346) @!%p38 bra $Lt_10_55810;
GPGPU-Sim PTX:    immediate post dominator      @  PC=0x1fa8 (_1.ptx:1351) mov.f32 %f284, %f386;
GPGPU-Sim PTX: 52 (potential) branch divergence @  PC=0x2018 (_1.ptx:1365) @%p39 bra $Lt_10_56322;
GPGPU-Sim PTX:    immediate post dominator      @  PC=0x2038 (_1.ptx:1372) mov.f32 %f268, %f284;
GPGPU-Sim PTX: 53 (potential) branch divergence @  PC=0x2158 (_1.ptx:1419) @%p40 bra $L_10_42242;
GPGPU-Sim PTX:    immediate post dominator      @  PC=0x2170 (_1.ptx:1424) sub.s32 %r86, %r24, 1;
GPGPU-Sim PTX: 54 (potential) branch divergence @  PC=0x2168 (_1.ptx:1421) @%p41 bra $L_10_41474;
GPGPU-Sim PTX:    immediate post dominator      @  PC=0x2170 (_1.ptx:1424) sub.s32 %r86, %r24, 1;
GPGPU-Sim PTX: 55 (potential) branch divergence @  PC=0x2190 (_1.ptx:1428) @%p42 bra $Lt_10_56834;
GPGPU-Sim PTX:    immediate post dominator      @  PC=0x2288 (_1.ptx:1464) ld.global.u32 %r92, [%rd4+0];
GPGPU-Sim PTX: 56 (potential) branch divergence @  PC=0x2280 (_1.ptx:1461) @%p43 bra $Lt_10_57346;
GPGPU-Sim PTX:    immediate post dominator      @  PC=0x2288 (_1.ptx:1464) ld.global.u32 %r92, [%rd4+0];
GPGPU-Sim PTX: ... end of reconvergence points for _Z6renderPjP4Nodejjff
GPGPU-Sim PTX: ... done pre-decoding instructions for '_Z6renderPjP4Nodejjff'.
GPGPU-Sim PTX: instruction assembly for function '_ZN4dim3C1Ejjj'...   done.
GPGPU-Sim PTX: finding reconvergence points for '_ZN4dim3C1Ejjj'...
GPGPU-Sim PTX: Finding dominators for '_ZN4dim3C1Ejjj'...
GPGPU-Sim PTX: Finding immediate dominators for '_ZN4dim3C1Ejjj'...
GPGPU-Sim PTX: Finding postdominators for '_ZN4dim3C1Ejjj'...
GPGPU-Sim PTX: Finding immediate postdominators for '_ZN4dim3C1Ejjj'...
GPGPU-Sim PTX: pre-decoding instructions for '_ZN4dim3C1Ejjj'...
GPGPU-Sim PTX: reconvergence points for _ZN4dim3C1Ejjj...
GPGPU-Sim PTX: ... end of reconvergence points for _ZN4dim3C1Ejjj
GPGPU-Sim PTX: ... done pre-decoding instructions for '_ZN4dim3C1Ejjj'.
GPGPU-Sim PTX: finished parsing EMBEDDED .ptx file _1.ptx
Adding _cuobjdump_1.ptx with cubin handle 1
GPGPU-Sim PTX: extracting embedded .ptx to temporary file "_ptx_wgrrSF"
Running: cat _ptx_wgrrSF | sed 's/.version 1.5/.version 1.4/' | sed 's/, texmode_independent//' | sed 's/\(\.extern \.const\[1\] .b8 \w\+\)\[\]/\1\[1\]/' | sed 's/const\[.\]/const\[0\]/g' > _ptx2_lDgGyo
GPGPU-Sim PTX: generating ptxinfo using "$CUDA_INSTALL_PATH/bin/ptxas --gpu-name=sm_20 -v _ptx2_lDgGyo --output-file  /dev/null 2> _ptx_wgrrSFinfo"
GPGPU-Sim PTX: Kernel '_Z6renderPjP4Nodejjff' : regs=45, lmem=4, smem=0, cmem=180
GPGPU-Sim PTX: removing ptxinfo using "rm -f _ptx_wgrrSF _ptx2_lDgGyo _ptx_wgrrSFinfo"
GPGPU-Sim PTX: loading globals with explicit initializers... 
GPGPU-Sim PTX: finished loading globals (0 bytes total).
GPGPU-Sim PTX: loading constants with explicit initializers...  done.
GPGPU-Sim PTX: __cudaRegisterVar: hostVar = 0x632880; deviceAddress = MView; deviceName = MView
GPGPU-Sim PTX: __cudaRegisterVar: Registering const memory space of 48 bytes
GPGPU-Sim PTX registering constant MView (48 bytes) to name mapping
GPGPU-Sim PTX: __cudaRegisterVar: hostVar = 0x6328c0; deviceAddress = cnode; deviceName = cnode
GPGPU-Sim PTX: __cudaRegisterVar: Registering const memory space of 160 bytes
GPGPU-Sim PTX registering constant cnode (160 bytes) to name mapping
GPGPU-Sim PTX: cudaMemcpyToSymbol: symbol = 0x6328c0
GPGPU-Sim PTX: starting gpgpu_ptx_sim_memcpy_symbol with hostVar 0x0x6328c0
GPGPU-Sim PTX: gpgpu_ptx_sim_memcpy_symbol: Found PTX symbol w/ hostVar=0x6328c0
GPGPU-Sim PTX: gpgpu_ptx_sim_memcpy_symbol: copying const memory 160 bytes  to  symbol cnode+0 @0x100 ...
GPGPU-Sim PTX: cudaMemcpyToSymbol: symbol = 0x632880
GPGPU-Sim PTX: starting gpgpu_ptx_sim_memcpy_symbol with hostVar 0x0x632880
GPGPU-Sim PTX: gpgpu_ptx_sim_memcpy_symbol: Found PTX symbol w/ hostVar=0x632880
GPGPU-Sim PTX: gpgpu_ptx_sim_memcpy_symbol: copying const memory 48 bytes  to  symbol MView+0 @0x200 ...

GPGPU-Sim PTX: cudaLaunch for 0x0x40d033 (mode=performance simulation) on stream 0
GPGPU-Sim PTX: pushing kernel '_Z6renderPjP4Nodejjff' to stream 0, gridDim= (16,32,1) blockDim = (16,8,1) 
kernel '_Z6renderPjP4Nodejjff' transfer to GPU hardware scheduler
GPGPU-Sim uArch: Shader 1 bind to kernel 1 '_Z6renderPjP4Nodejjff'
GPGPU-Sim uArch: CTA/core = 5, limited by: regs
GPGPU-Sim uArch: core:  1, cta: 0 initialized @(1,0)
GPGPU-Sim uArch: Shader 2 bind to kernel 1 '_Z6renderPjP4Nodejjff'
GPGPU-Sim uArch: core:  2, cta: 0 initialized @(1,0)
GPGPU-Sim uArch: Shader 3 bind to kernel 1 '_Z6renderPjP4Nodejjff'
GPGPU-Sim uArch: core:  3, cta: 0 initialized @(1,0)
GPGPU-Sim uArch: Shader 4 bind to kernel 1 '_Z6renderPjP4Nodejjff'
GPGPU-Sim uArch: core:  4, cta: 0 initialized @(1,0)
GPGPU-Sim uArch: Shader 5 bind to kernel 1 '_Z6renderPjP4Nodejjff'
GPGPU-Sim uArch: core:  5, cta: 0 initialized @(1,0)
GPGPU-Sim uArch: Shader 6 bind to kernel 1 '_Z6renderPjP4Nodejjff'
GPGPU-Sim uArch: core:  6, cta: 0 initialized @(1,0)
GPGPU-Sim uArch: Shader 7 bind to kernel 1 '_Z6renderPjP4Nodejjff'
GPGPU-Sim uArch: core:  7, cta: 0 initialized @(1,0)
GPGPU-Sim uArch: Shader 8 bind to kernel 1 '_Z6renderPjP4Nodejjff'
GPGPU-Sim uArch: core:  8, cta: 0 initialized @(1,0)
GPGPU-Sim uArch: Shader 9 bind to kernel 1 '_Z6renderPjP4Nodejjff'
GPGPU-Sim uArch: core:  9, cta: 0 initialized @(1,0)
GPGPU-Sim uArch: Shader 10 bind to kernel 1 '_Z6renderPjP4Nodejjff'
GPGPU-Sim uArch: core: 10, cta: 0 initialized @(1,0)
GPGPU-Sim uArch: Shader 11 bind to kernel 1 '_Z6renderPjP4Nodejjff'
GPGPU-Sim uArch: core: 11, cta: 0 initialized @(1,0)
GPGPU-Sim uArch: Shader 12 bind to kernel 1 '_Z6renderPjP4Nodejjff'
GPGPU-Sim uArch: core: 12, cta: 0 initialized @(1,0)
GPGPU-Sim uArch: Shader 13 bind to kernel 1 '_Z6renderPjP4Nodejjff'
GPGPU-Sim uArch: core: 13, cta: 0 initialized @(1,0)
GPGPU-Sim uArch: Shader 14 bind to kernel 1 '_Z6renderPjP4Nodejjff'
GPGPU-Sim uArch: core: 14, cta: 0 initialized @(1,0)
GPGPU-Sim uArch: Shader 0 bind to kernel 1 '_Z6renderPjP4Nodejjff'
GPGPU-Sim uArch: core:  0, cta: 0 initialized @(1,0)
GPGPU-Sim uArch: core:  1, cta: 1 initialized @(2,0)
GPGPU-Sim uArch: core:  2, cta: 1 initialized @(2,0)
GPGPU-Sim uArch: core:  3, cta: 1 initialized @(2,0)
GPGPU-Sim uArch: core:  4, cta: 1 initialized @(2,0)
GPGPU-Sim uArch: core:  5, cta: 1 initialized @(2,0)
GPGPU-Sim uArch: core:  6, cta: 1 initialized @(2,0)
GPGPU-Sim uArch: core:  7, cta: 1 initialized @(2,0)
GPGPU-Sim uArch: core:  8, cta: 1 initialized @(2,0)
GPGPU-Sim uArch: core:  9, cta: 1 initialized @(2,0)
GPGPU-Sim uArch: core: 10, cta: 1 initialized @(2,0)
GPGPU-Sim uArch: core: 11, cta: 1 initialized @(2,0)
GPGPU-Sim uArch: core: 12, cta: 1 initialized @(2,0)
GPGPU-Sim uArch: core: 13, cta: 1 initialized @(2,0)
GPGPU-Sim uArch: core: 14, cta: 1 initialized @(2,0)
GPGPU-Sim uArch: core:  0, cta: 1 initialized @(2,0)
GPGPU-Sim uArch: core:  1, cta: 2 initialized @(3,0)
GPGPU-Sim uArch: core:  2, cta: 2 initialized @(3,0)
GPGPU-Sim uArch: core:  3, cta: 2 initialized @(3,0)
GPGPU-Sim uArch: core:  4, cta: 2 initialized @(3,0)
GPGPU-Sim uArch: core:  5, cta: 2 initialized @(3,0)
GPGPU-Sim uArch: core:  6, cta: 2 initialized @(3,0)
GPGPU-Sim uArch: core:  7, cta: 2 initialized @(3,0)
GPGPU-Sim uArch: core:  8, cta: 2 initialized @(3,0)
GPGPU-Sim uArch: core:  9, cta: 2 initialized @(3,0)
GPGPU-Sim uArch: core: 10, cta: 2 initialized @(3,0)
GPGPU-Sim uArch: core: 11, cta: 2 initialized @(3,0)
GPGPU-Sim uArch: core: 12, cta: 2 initialized @(3,0)
GPGPU-Sim uArch: core: 13, cta: 2 initialized @(3,0)
GPGPU-Sim uArch: core: 14, cta: 2 initialized @(3,0)
GPGPU-Sim uArch: core:  0, cta: 2 initialized @(3,0)
GPGPU-Sim uArch: core:  1, cta: 3 initialized @(4,0)
GPGPU-Sim uArch: core:  2, cta: 3 initialized @(4,0)
GPGPU-Sim uArch: core:  3, cta: 3 initialized @(4,0)
GPGPU-Sim uArch: core:  4, cta: 3 initialized @(4,0)
GPGPU-Sim uArch: core:  5, cta: 3 initialized @(4,0)
GPGPU-Sim uArch: core:  6, cta: 3 initialized @(4,0)
GPGPU-Sim uArch: core:  7, cta: 3 initialized @(4,0)
GPGPU-Sim uArch: core:  8, cta: 3 initialized @(4,0)
GPGPU-Sim uArch: core:  9, cta: 3 initialized @(4,0)
GPGPU-Sim uArch: core: 10, cta: 3 initialized @(4,0)
GPGPU-Sim uArch: core: 11, cta: 3 initialized @(4,0)
GPGPU-Sim uArch: core: 12, cta: 3 initialized @(4,0)
GPGPU-Sim uArch: core: 13, cta: 3 initialized @(4,0)
GPGPU-Sim uArch: core: 14, cta: 3 initialized @(4,0)
GPGPU-Sim uArch: core:  0, cta: 3 initialized @(4,0)
GPGPU-Sim uArch: core:  1, cta: 4 initialized @(5,0)
GPGPU-Sim uArch: core:  2, cta: 4 initialized @(5,0)
GPGPU-Sim uArch: core:  3, cta: 4 initialized @(5,0)
GPGPU-Sim uArch: core:  4, cta: 4 initialized @(5,0)
GPGPU-Sim uArch: core:  5, cta: 4 initialized @(5,0)
GPGPU-Sim uArch: core:  6, cta: 4 initialized @(5,0)
GPGPU-Sim uArch: core:  7, cta: 4 initialized @(5,0)
GPGPU-Sim uArch: core:  8, cta: 4 initialized @(5,0)
GPGPU-Sim uArch: core:  9, cta: 4 initialized @(5,0)
GPGPU-Sim uArch: core: 10, cta: 4 initialized @(5,0)
GPGPU-Sim uArch: core: 11, cta: 4 initialized @(5,0)
GPGPU-Sim uArch: core: 12, cta: 4 initialized @(5,0)
GPGPU-Sim uArch: core: 13, cta: 4 initialized @(5,0)
GPGPU-Sim uArch: core: 14, cta: 4 initialized @(5,0)
GPGPU-Sim uArch: core:  0, cta: 4 initialized @(5,0)
GPGPU-Sim uArch: cycles simulated: 500  inst.: 36032 (ipc=72.1) sim_rate=36032 (inst/sec) elapsed = 0:0:00:01 / Tue Apr 16 16:55:29 2019
GPGPU-Sim uArch: cycles simulated: 2000  inst.: 84160 (ipc=42.1) sim_rate=42080 (inst/sec) elapsed = 0:0:00:02 / Tue Apr 16 16:55:30 2019
GPGPU-Sim PTX: 100000 instructions simulated : ctaid=(7,0,0) tid=(15,1,0)
GPGPU-Sim uArch: cycles simulated: 3500  inst.: 166112 (ipc=47.5) sim_rate=55370 (inst/sec) elapsed = 0:0:00:03 / Tue Apr 16 16:55:31 2019
GPGPU-Sim PTX: 200000 instructions simulated : ctaid=(7,3,0) tid=(15,5,0)
GPGPU-Sim PTX: 300000 instructions simulated : ctaid=(2,0,0) tid=(15,1,0)
GPGPU-Sim uArch: cycles simulated: 5000  inst.: 301184 (ipc=60.2) sim_rate=75296 (inst/sec) elapsed = 0:0:00:04 / Tue Apr 16 16:55:32 2019
GPGPU-Sim PTX: 400000 instructions simulated : ctaid=(4,0,0) tid=(15,7,0)
GPGPU-Sim uArch: cycles simulated: 6000  inst.: 486400 (ipc=81.1) sim_rate=97280 (inst/sec) elapsed = 0:0:00:05 / Tue Apr 16 16:55:33 2019
GPGPU-Sim PTX: 500000 instructions simulated : ctaid=(14,1,0) tid=(15,5,0)
GPGPU-Sim PTX: 600000 instructions simulated : ctaid=(14,3,0) tid=(15,5,0)
GPGPU-Sim PTX: 700000 instructions simulated : ctaid=(7,4,0) tid=(15,1,0)
GPGPU-Sim uArch: cycles simulated: 7000  inst.: 732160 (ipc=104.6) sim_rate=122026 (inst/sec) elapsed = 0:0:00:06 / Tue Apr 16 16:55:34 2019
GPGPU-Sim PTX: 800000 instructions simulated : ctaid=(1,0,0) tid=(15,7,0)
GPGPU-Sim PTX: 900000 instructions simulated : ctaid=(5,1,0) tid=(15,3,0)
GPGPU-Sim uArch: cycles simulated: 8000  inst.: 926272 (ipc=115.8) sim_rate=132324 (inst/sec) elapsed = 0:0:00:07 / Tue Apr 16 16:55:35 2019
GPGPU-Sim PTX: 1000000 instructions simulated : ctaid=(4,2,0) tid=(15,7,0)
GPGPU-Sim PTX: 1100000 instructions simulated : ctaid=(13,2,0) tid=(15,7,0)
GPGPU-Sim PTX: 1200000 instructions simulated : ctaid=(4,2,0) tid=(15,5,0)
GPGPU-Sim uArch: cycles simulated: 9000  inst.: 1272192 (ipc=141.4) sim_rate=159024 (inst/sec) elapsed = 0:0:00:08 / Tue Apr 16 16:55:36 2019
GPGPU-Sim PTX: 1300000 instructions simulated : ctaid=(14,3,0) tid=(15,3,0)
GPGPU-Sim PTX: 1400000 instructions simulated : ctaid=(6,0,0) tid=(15,7,0)
GPGPU-Sim PTX: 1500000 instructions simulated : ctaid=(7,3,0) tid=(15,1,0)
GPGPU-Sim uArch: cycles simulated: 9500  inst.: 1536896 (ipc=161.8) sim_rate=170766 (inst/sec) elapsed = 0:0:00:09 / Tue Apr 16 16:55:37 2019
GPGPU-Sim PTX: 1600000 instructions simulated : ctaid=(13,3,0) tid=(15,1,0)
GPGPU-Sim PTX: 1700000 instructions simulated : ctaid=(0,1,0) tid=(15,3,0)
GPGPU-Sim PTX: 1800000 instructions simulated : ctaid=(13,1,0) tid=(15,1,0)
GPGPU-Sim uArch: cycles simulated: 10000  inst.: 1799520 (ipc=180.0) sim_rate=179952 (inst/sec) elapsed = 0:0:00:10 / Tue Apr 16 16:55:38 2019
GPGPU-Sim PTX: 1900000 instructions simulated : ctaid=(8,2,0) tid=(15,5,0)
GPGPU-Sim PTX: 2000000 instructions simulated : ctaid=(12,0,0) tid=(15,7,0)
GPGPU-Sim PTX: 2100000 instructions simulated : ctaid=(8,1,0) tid=(15,5,0)
GPGPU-Sim PTX: 2200000 instructions simulated : ctaid=(3,2,0) tid=(15,5,0)
GPGPU-Sim uArch: cycles simulated: 10500  inst.: 2199360 (ipc=209.5) sim_rate=199941 (inst/sec) elapsed = 0:0:00:11 / Tue Apr 16 16:55:39 2019
GPGPU-Sim PTX: 2300000 instructions simulated : ctaid=(0,1,0) tid=(15,5,0)
GPGPU-Sim PTX: 2400000 instructions simulated : ctaid=(1,4,0) tid=(15,5,0)
GPGPU-Sim PTX: 2500000 instructions simulated : ctaid=(4,3,0) tid=(15,3,0)
GPGPU-Sim PTX: 2600000 instructions simulated : ctaid=(5,3,0) tid=(15,5,0)
GPGPU-Sim PTX: 2700000 instructions simulated : ctaid=(11,0,0) tid=(15,1,0)
GPGPU-Sim PTX: 2800000 instructions simulated : ctaid=(10,0,0) tid=(15,7,0)
GPGPU-Sim PTX: 2900000 instructions simulated : ctaid=(13,2,0) tid=(15,3,0)
GPGPU-Sim uArch: cycles simulated: 11500  inst.: 2899488 (ipc=252.1) sim_rate=241624 (inst/sec) elapsed = 0:0:00:12 / Tue Apr 16 16:55:40 2019
GPGPU-Sim PTX: 3000000 instructions simulated : ctaid=(6,1,0) tid=(15,5,0)
GPGPU-Sim PTX: 3100000 instructions simulated : ctaid=(3,4,0) tid=(15,1,0)
GPGPU-Sim PTX: 3200000 instructions simulated : ctaid=(5,1,0) tid=(15,3,0)
GPGPU-Sim uArch: cycles simulated: 12000  inst.: 3198432 (ipc=266.5) sim_rate=246033 (inst/sec) elapsed = 0:0:00:13 / Tue Apr 16 16:55:41 2019
GPGPU-Sim PTX: 3300000 instructions simulated : ctaid=(11,3,0) tid=(15,7,0)
GPGPU-Sim PTX: 3400000 instructions simulated : ctaid=(0,4,0) tid=(15,7,0)
GPGPU-Sim uArch: cycles simulated: 12500  inst.: 3382176 (ipc=270.6) sim_rate=241584 (inst/sec) elapsed = 0:0:00:14 / Tue Apr 16 16:55:42 2019
GPGPU-Sim PTX: 3500000 instructions simulated : ctaid=(11,0,0) tid=(15,3,0)
GPGPU-Sim PTX: 3600000 instructions simulated : ctaid=(14,0,0) tid=(15,3,0)
GPGPU-Sim uArch: cycles simulated: 13000  inst.: 3551040 (ipc=273.2) sim_rate=236736 (inst/sec) elapsed = 0:0:00:15 / Tue Apr 16 16:55:43 2019
GPGPU-Sim PTX: 3700000 instructions simulated : ctaid=(10,3,0) tid=(15,5,0)
GPGPU-Sim PTX: 3800000 instructions simulated : ctaid=(2,0,0) tid=(15,7,0)
GPGPU-Sim PTX: 3900000 instructions simulated : ctaid=(4,2,0) tid=(15,1,0)
GPGPU-Sim uArch: cycles simulated: 14000  inst.: 3883104 (ipc=277.4) sim_rate=242694 (inst/sec) elapsed = 0:0:00:16 / Tue Apr 16 16:55:44 2019
GPGPU-Sim PTX: 4000000 instructions simulated : ctaid=(7,4,0) tid=(15,3,0)
GPGPU-Sim PTX: 4100000 instructions simulated : ctaid=(3,2,0) tid=(15,3,0)
GPGPU-Sim PTX: 4200000 instructions simulated : ctaid=(1,4,0) tid=(15,5,0)
GPGPU-Sim uArch: cycles simulated: 15000  inst.: 4111776 (ipc=274.1) sim_rate=241869 (inst/sec) elapsed = 0:0:00:17 / Tue Apr 16 16:55:45 2019
GPGPU-Sim PTX: 4300000 instructions simulated : ctaid=(11,2,0) tid=(15,7,0)
GPGPU-Sim PTX: 4400000 instructions simulated : ctaid=(1,4,0) tid=(15,1,0)
GPGPU-Sim PTX: 4500000 instructions simulated : ctaid=(8,3,0) tid=(15,3,0)
GPGPU-Sim PTX: 4600000 instructions simulated : ctaid=(3,2,0) tid=(12,0,0)
GPGPU-Sim PTX: 4700000 instructions simulated : ctaid=(8,0,0) tid=(6,2,0)
GPGPU-Sim uArch: cycles simulated: 16000  inst.: 4590336 (ipc=286.9) sim_rate=255018 (inst/sec) elapsed = 0:0:00:18 / Tue Apr 16 16:55:46 2019
GPGPU-Sim PTX: 4800000 instructions simulated : ctaid=(7,0,0) tid=(15,2,0)
GPGPU-Sim PTX: 4900000 instructions simulated : ctaid=(8,2,0) tid=(15,2,0)
GPGPU-Sim PTX: 5000000 instructions simulated : ctaid=(1,0,0) tid=(15,0,0)
GPGPU-Sim PTX: 5100000 instructions simulated : ctaid=(6,3,0) tid=(15,2,0)
GPGPU-Sim uArch: cycles simulated: 16500  inst.: 4982224 (ipc=302.0) sim_rate=262222 (inst/sec) elapsed = 0:0:00:19 / Tue Apr 16 16:55:47 2019
GPGPU-Sim PTX: 5200000 instructions simulated : ctaid=(2,0,0) tid=(15,4,0)
GPGPU-Sim PTX: 5300000 instructions simulated : ctaid=(6,3,0) tid=(15,0,0)
GPGPU-Sim PTX: 5400000 instructions simulated : ctaid=(8,2,0) tid=(8,2,0)
GPGPU-Sim PTX: 5500000 instructions simulated : ctaid=(3,3,0) tid=(9,0,0)
GPGPU-Sim uArch: cycles simulated: 17000  inst.: 5380171 (ipc=316.5) sim_rate=269008 (inst/sec) elapsed = 0:0:00:20 / Tue Apr 16 16:55:48 2019
GPGPU-Sim PTX: 5600000 instructions simulated : ctaid=(0,4,0) tid=(3,1,0)
GPGPU-Sim PTX: 5700000 instructions simulated : ctaid=(8,0,0) tid=(5,7,0)
GPGPU-Sim PTX: 5800000 instructions simulated : ctaid=(2,3,0) tid=(4,3,0)
GPGPU-Sim uArch: cycles simulated: 17500  inst.: 5708264 (ipc=326.2) sim_rate=271822 (inst/sec) elapsed = 0:0:00:21 / Tue Apr 16 16:55:49 2019
GPGPU-Sim PTX: 5900000 instructions simulated : ctaid=(12,1,0) tid=(7,5,0)
GPGPU-Sim PTX: 6000000 instructions simulated : ctaid=(14,3,0) tid=(15,6,0)
GPGPU-Sim PTX: 6100000 instructions simulated : ctaid=(10,4,0) tid=(11,1,0)
GPGPU-Sim uArch: cycles simulated: 18000  inst.: 5948100 (ipc=330.4) sim_rate=270368 (inst/sec) elapsed = 0:0:00:22 / Tue Apr 16 16:55:50 2019
GPGPU-Sim PTX: 6200000 instructions simulated : ctaid=(2,1,0) tid=(11,3,0)
GPGPU-Sim PTX: 6300000 instructions simulated : ctaid=(11,2,0) tid=(11,1,0)
GPGPU-Sim PTX: 6400000 instructions simulated : ctaid=(8,2,0) tid=(11,1,0)
GPGPU-Sim uArch: cycles simulated: 19500  inst.: 6240100 (ipc=320.0) sim_rate=271308 (inst/sec) elapsed = 0:0:00:23 / Tue Apr 16 16:55:51 2019
GPGPU-Sim PTX: 6500000 instructions simulated : ctaid=(14,2,0) tid=(6,2,0)
GPGPU-Sim PTX: 6600000 instructions simulated : ctaid=(1,4,0) tid=(11,3,0)
GPGPU-Sim PTX: 6700000 instructions simulated : ctaid=(11,3,0) tid=(11,5,0)
GPGPU-Sim uArch: cycles simulated: 20500  inst.: 6576356 (ipc=320.8) sim_rate=274014 (inst/sec) elapsed = 0:0:00:24 / Tue Apr 16 16:55:52 2019
GPGPU-Sim PTX: 6800000 instructions simulated : ctaid=(3,0,0) tid=(11,1,0)
GPGPU-Sim PTX: 6900000 instructions simulated : ctaid=(14,0,0) tid=(11,3,0)
GPGPU-Sim uArch: cycles simulated: 21000  inst.: 6796644 (ipc=323.6) sim_rate=271865 (inst/sec) elapsed = 0:0:00:25 / Tue Apr 16 16:55:53 2019
GPGPU-Sim PTX: 7000000 instructions simulated : ctaid=(7,4,0) tid=(11,1,0)
GPGPU-Sim PTX: 7100000 instructions simulated : ctaid=(13,1,0) tid=(11,7,0)
GPGPU-Sim uArch: cycles simulated: 21500  inst.: 6964260 (ipc=323.9) sim_rate=267856 (inst/sec) elapsed = 0:0:00:26 / Tue Apr 16 16:55:54 2019
GPGPU-Sim PTX: 7200000 instructions simulated : ctaid=(9,2,0) tid=(11,5,0)
GPGPU-Sim PTX: 7300000 instructions simulated : ctaid=(4,2,0) tid=(11,5,0)
GPGPU-Sim PTX: 7400000 instructions simulated : ctaid=(4,2,0) tid=(11,3,0)
GPGPU-Sim PTX: 7500000 instructions simulated : ctaid=(0,2,0) tid=(11,3,0)
GPGPU-Sim uArch: cycles simulated: 22500  inst.: 7301316 (ipc=324.5) sim_rate=270419 (inst/sec) elapsed = 0:0:00:27 / Tue Apr 16 16:55:55 2019
GPGPU-Sim PTX: 7600000 instructions simulated : ctaid=(9,0,0) tid=(11,1,0)
GPGPU-Sim PTX: 7700000 instructions simulated : ctaid=(10,3,0) tid=(11,5,0)
GPGPU-Sim PTX: 7800000 instructions simulated : ctaid=(9,3,0) tid=(11,3,0)
GPGPU-Sim uArch: cycles simulated: 23500  inst.: 7650180 (ipc=325.5) sim_rate=273220 (inst/sec) elapsed = 0:0:00:28 / Tue Apr 16 16:55:56 2019
GPGPU-Sim PTX: 7900000 instructions simulated : ctaid=(13,1,0) tid=(11,3,0)
GPGPU-Sim PTX: 8000000 instructions simulated : ctaid=(12,0,0) tid=(11,3,0)
GPGPU-Sim PTX: 8100000 instructions simulated : ctaid=(0,1,0) tid=(11,3,0)
GPGPU-Sim PTX: 8200000 instructions simulated : ctaid=(1,0,0) tid=(11,5,0)
GPGPU-Sim uArch: cycles simulated: 24500  inst.: 8009572 (ipc=326.9) sim_rate=276192 (inst/sec) elapsed = 0:0:00:29 / Tue Apr 16 16:55:57 2019
GPGPU-Sim PTX: 8300000 instructions simulated : ctaid=(11,3,0) tid=(11,5,0)
GPGPU-Sim PTX: 8400000 instructions simulated : ctaid=(8,3,0) tid=(11,1,0)
GPGPU-Sim PTX: 8500000 instructions simulated : ctaid=(6,3,0) tid=(11,1,0)
GPGPU-Sim uArch: cycles simulated: 25000  inst.: 8293700 (ipc=331.7) sim_rate=276456 (inst/sec) elapsed = 0:0:00:30 / Tue Apr 16 16:55:58 2019
GPGPU-Sim PTX: 8600000 instructions simulated : ctaid=(11,1,0) tid=(11,5,0)
GPGPU-Sim PTX: 8700000 instructions simulated : ctaid=(2,0,0) tid=(15,4,0)
GPGPU-Sim PTX: 8800000 instructions simulated : ctaid=(5,1,0) tid=(13,6,0)
GPGPU-Sim PTX: 8900000 instructions simulated : ctaid=(15,1,0) tid=(11,1,0)
GPGPU-Sim uArch: cycles simulated: 25500  inst.: 8683556 (ipc=340.5) sim_rate=280114 (inst/sec) elapsed = 0:0:00:31 / Tue Apr 16 16:55:59 2019
GPGPU-Sim PTX: 9000000 instructions simulated : ctaid=(5,0,0) tid=(0,7,0)
GPGPU-Sim PTX: 9100000 instructions simulated : ctaid=(14,3,0) tid=(14,0,0)
GPGPU-Sim PTX: 9200000 instructions simulated : ctaid=(12,1,0) tid=(5,2,0)
GPGPU-Sim PTX: 9300000 instructions simulated : ctaid=(1,2,0) tid=(7,7,0)
GPGPU-Sim uArch: cycles simulated: 26000  inst.: 9084847 (ipc=349.4) sim_rate=283901 (inst/sec) elapsed = 0:0:00:32 / Tue Apr 16 16:56:00 2019
GPGPU-Sim PTX: 9400000 instructions simulated : ctaid=(6,0,0) tid=(9,5,0)
GPGPU-Sim PTX: 9500000 instructions simulated : ctaid=(10,4,0) tid=(10,4,0)
GPGPU-Sim PTX: 9600000 instructions simulated : ctaid=(0,4,0) tid=(10,0,0)
GPGPU-Sim PTX: 9700000 instructions simulated : ctaid=(6,0,0) tid=(8,0,0)
GPGPU-Sim uArch: cycles simulated: 26500  inst.: 9481321 (ipc=357.8) sim_rate=287312 (inst/sec) elapsed = 0:0:00:33 / Tue Apr 16 16:56:01 2019
GPGPU-Sim PTX: 9800000 instructions simulated : ctaid=(5,0,0) tid=(5,2,0)
GPGPU-Sim PTX: 9900000 instructions simulated : ctaid=(0,3,0) tid=(15,7,0)
GPGPU-Sim PTX: 10000000 instructions simulated : ctaid=(4,4,0) tid=(4,2,0)
GPGPU-Sim PTX: 10100000 instructions simulated : ctaid=(6,3,0) tid=(3,4,0)
GPGPU-Sim uArch: cycles simulated: 27500  inst.: 9855202 (ipc=358.4) sim_rate=289858 (inst/sec) elapsed = 0:0:00:34 / Tue Apr 16 16:56:02 2019
GPGPU-Sim PTX: 10200000 instructions simulated : ctaid=(1,0,0) tid=(7,3,0)
GPGPU-Sim PTX: 10300000 instructions simulated : ctaid=(4,2,0) tid=(14,0,0)
GPGPU-Sim PTX: 10400000 instructions simulated : ctaid=(0,3,0) tid=(8,3,0)
GPGPU-Sim uArch: cycles simulated: 28500  inst.: 10134830 (ipc=355.6) sim_rate=289566 (inst/sec) elapsed = 0:0:00:35 / Tue Apr 16 16:56:03 2019
GPGPU-Sim uArch: Shader 2 finished CTA #0 (28511,0), 4 CTAs running
GPGPU-Sim uArch: core:  2, cta: 0 initialized @(28512,0)
GPGPU-Sim uArch: Shader 8 finished CTA #3 (28538,0), 4 CTAs running
GPGPU-Sim uArch: core:  8, cta: 3 initialized @(28539,0)
GPGPU-Sim uArch: Shader 14 finished CTA #0 (28549,0), 4 CTAs running
GPGPU-Sim uArch: core: 14, cta: 0 initialized @(28550,0)
GPGPU-Sim uArch: Shader 8 finished CTA #2 (28552,0), 4 CTAs running
GPGPU-Sim uArch: core:  8, cta: 2 initialized @(28553,0)
GPGPU-Sim uArch: Shader 8 finished CTA #4 (28579,0), 4 CTAs running
GPGPU-Sim uArch: core:  8, cta: 4 initialized @(28580,0)
GPGPU-Sim uArch: Shader 2 finished CTA #2 (28585,0), 4 CTAs running
GPGPU-Sim uArch: core:  2, cta: 2 initialized @(28586,0)
GPGPU-Sim uArch: Shader 1 finished CTA #0 (28617,0), 4 CTAs running
GPGPU-Sim uArch: core:  1, cta: 0 initialized @(28618,0)
GPGPU-Sim uArch: Shader 0 finished CTA #1 (28619,0), 4 CTAs running
GPGPU-Sim uArch: core:  0, cta: 1 initialized @(28620,0)
GPGPU-Sim uArch: Shader 4 finished CTA #2 (28620,0), 4 CTAs running
GPGPU-Sim uArch: core:  4, cta: 2 initialized @(28621,0)
GPGPU-Sim uArch: Shader 9 finished CTA #4 (28623,0), 4 CTAs running
GPGPU-Sim uArch: core:  9, cta: 4 initialized @(28624,0)
GPGPU-Sim uArch: Shader 1 finished CTA #1 (28625,0), 4 CTAs running
GPGPU-Sim uArch: core:  1, cta: 1 initialized @(28626,0)
GPGPU-Sim uArch: Shader 2 finished CTA #1 (28643,0), 4 CTAs running
GPGPU-Sim uArch: core:  2, cta: 1 initialized @(28644,0)
GPGPU-Sim uArch: Shader 2 finished CTA #3 (28667,0), 4 CTAs running
GPGPU-Sim uArch: core:  2, cta: 3 initialized @(28668,0)
GPGPU-Sim uArch: Shader 9 finished CTA #3 (28680,0), 4 CTAs running
GPGPU-Sim uArch: core:  9, cta: 3 initialized @(28681,0)
GPGPU-Sim uArch: Shader 0 finished CTA #2 (28687,0), 4 CTAs running
GPGPU-Sim uArch: core:  0, cta: 2 initialized @(28688,0)
GPGPU-Sim uArch: Shader 1 finished CTA #3 (28691,0), 4 CTAs running
GPGPU-Sim uArch: core:  1, cta: 3 initialized @(28692,0)
GPGPU-Sim uArch: Shader 4 finished CTA #1 (28699,0), 4 CTAs running
GPGPU-Sim uArch: core:  4, cta: 1 initialized @(28700,0)
GPGPU-Sim uArch: Shader 5 finished CTA #2 (28703,0), 4 CTAs running
GPGPU-Sim uArch: core:  5, cta: 2 initialized @(28704,0)
GPGPU-Sim uArch: Shader 0 finished CTA #0 (28707,0), 4 CTAs running
GPGPU-Sim uArch: core:  0, cta: 0 initialized @(28708,0)
GPGPU-Sim uArch: Shader 1 finished CTA #2 (28715,0), 4 CTAs running
GPGPU-Sim uArch: core:  1, cta: 2 initialized @(28716,0)
GPGPU-Sim uArch: Shader 1 finished CTA #4 (28727,0), 4 CTAs running
GPGPU-Sim uArch: core:  1, cta: 4 initialized @(28728,0)
GPGPU-Sim uArch: Shader 2 finished CTA #4 (28731,0), 4 CTAs running
GPGPU-Sim uArch: core:  2, cta: 4 initialized @(28732,0)
GPGPU-Sim uArch: Shader 6 finished CTA #2 (28733,0), 4 CTAs running
GPGPU-Sim uArch: core:  6, cta: 2 initialized @(28734,0)
GPGPU-Sim uArch: Shader 4 finished CTA #4 (28745,0), 4 CTAs running
GPGPU-Sim uArch: core:  4, cta: 4 initialized @(28746,0)
GPGPU-Sim uArch: Shader 6 finished CTA #3 (28750,0), 4 CTAs running
GPGPU-Sim uArch: core:  6, cta: 3 initialized @(28751,0)
GPGPU-Sim uArch: Shader 0 finished CTA #3 (28754,0), 4 CTAs running
GPGPU-Sim uArch: core:  0, cta: 3 initialized @(28755,0)
GPGPU-Sim uArch: Shader 4 finished CTA #3 (28761,0), 4 CTAs running
GPGPU-Sim uArch: core:  4, cta: 3 initialized @(28762,0)
GPGPU-Sim uArch: Shader 0 finished CTA #4 (28762,0), 4 CTAs running
GPGPU-Sim uArch: core:  0, cta: 4 initialized @(28763,0)
GPGPU-Sim uArch: Shader 5 finished CTA #3 (28765,0), 4 CTAs running
GPGPU-Sim uArch: core:  5, cta: 3 initialized @(28766,0)
GPGPU-Sim uArch: Shader 6 finished CTA #4 (28773,0), 4 CTAs running
GPGPU-Sim uArch: core:  6, cta: 4 initialized @(28774,0)
GPGPU-Sim uArch: Shader 7 finished CTA #3 (28803,0), 4 CTAs running
GPGPU-Sim uArch: core:  7, cta: 3 initialized @(28804,0)
GPGPU-Sim PTX: 10500000 instructions simulated : ctaid=(5,0,0) tid=(11,5,0)
GPGPU-Sim uArch: Shader 7 finished CTA #4 (28823,0), 4 CTAs running
GPGPU-Sim uArch: core:  7, cta: 4 initialized @(28824,0)
GPGPU-Sim uArch: Shader 3 finished CTA #0 (28883,0), 4 CTAs running
GPGPU-Sim uArch: core:  3, cta: 0 initialized @(28884,0)
GPGPU-Sim uArch: Shader 3 finished CTA #1 (28891,0), 4 CTAs running
GPGPU-Sim uArch: core:  3, cta: 1 initialized @(28892,0)
GPGPU-Sim uArch: Shader 10 finished CTA #4 (28899,0), 4 CTAs running
GPGPU-Sim uArch: core: 10, cta: 4 initialized @(28900,0)
GPGPU-Sim uArch: Shader 3 finished CTA #2 (28907,0), 4 CTAs running
GPGPU-Sim uArch: core:  3, cta: 2 initialized @(28908,0)
GPGPU-Sim uArch: Shader 3 finished CTA #3 (28915,0), 4 CTAs running
GPGPU-Sim uArch: core:  3, cta: 3 initialized @(28916,0)
GPGPU-Sim uArch: Shader 3 finished CTA #4 (28923,0), 4 CTAs running
GPGPU-Sim uArch: core:  3, cta: 4 initialized @(28924,0)
GPGPU-Sim uArch: Shader 5 finished CTA #4 (28948,0), 4 CTAs running
GPGPU-Sim uArch: core:  5, cta: 4 initialized @(28949,0)
GPGPU-Sim uArch: cycles simulated: 29000  inst.: 10284776 (ipc=354.6) sim_rate=285688 (inst/sec) elapsed = 0:0:00:36 / Tue Apr 16 16:56:04 2019
GPGPU-Sim PTX: 10600000 instructions simulated : ctaid=(11,5,0) tid=(0,7,0)
GPGPU-Sim PTX: 10700000 instructions simulated : ctaid=(15,4,0) tid=(13,5,0)
GPGPU-Sim uArch: cycles simulated: 29500  inst.: 10430838 (ipc=353.6) sim_rate=281914 (inst/sec) elapsed = 0:0:00:37 / Tue Apr 16 16:56:05 2019
GPGPU-Sim PTX: 10800000 instructions simulated : ctaid=(3,0,0) tid=(13,5,0)
GPGPU-Sim uArch: cycles simulated: 30000  inst.: 10593931 (ipc=353.1) sim_rate=278787 (inst/sec) elapsed = 0:0:00:38 / Tue Apr 16 16:56:06 2019
GPGPU-Sim PTX: 10900000 instructions simulated : ctaid=(7,6,0) tid=(0,1,0)
GPGPU-Sim PTX: 11000000 instructions simulated : ctaid=(12,5,0) tid=(2,2,0)
GPGPU-Sim PTX: 11100000 instructions simulated : ctaid=(9,0,0) tid=(13,7,0)
GPGPU-Sim PTX: 11200000 instructions simulated : ctaid=(6,0,0) tid=(0,1,0)
GPGPU-Sim PTX: 11300000 instructions simulated : ctaid=(4,5,0) tid=(2,3,0)
GPGPU-Sim uArch: cycles simulated: 31000  inst.: 11039011 (ipc=356.1) sim_rate=283051 (inst/sec) elapsed = 0:0:00:39 / Tue Apr 16 16:56:07 2019
GPGPU-Sim PTX: 11400000 instructions simulated : ctaid=(13,4,0) tid=(8,0,0)
GPGPU-Sim PTX: 11500000 instructions simulated : ctaid=(3,5,0) tid=(4,6,0)
GPGPU-Sim PTX: 11600000 instructions simulated : ctaid=(6,6,0) tid=(6,0,0)
GPGPU-Sim uArch: cycles simulated: 31500  inst.: 11317977 (ipc=359.3) sim_rate=282949 (inst/sec) elapsed = 0:0:00:40 / Tue Apr 16 16:56:08 2019
GPGPU-Sim PTX: 11700000 instructions simulated : ctaid=(6,3,0) tid=(11,7,0)
GPGPU-Sim PTX: 11800000 instructions simulated : ctaid=(9,3,0) tid=(10,6,0)
GPGPU-Sim uArch: cycles simulated: 32000  inst.: 11585430 (ipc=362.0) sim_rate=282571 (inst/sec) elapsed = 0:0:00:41 / Tue Apr 16 16:56:09 2019
GPGPU-Sim PTX: 11900000 instructions simulated : ctaid=(11,5,0) tid=(10,4,0)
GPGPU-Sim PTX: 12000000 instructions simulated : ctaid=(1,6,0) tid=(3,1,0)
GPGPU-Sim PTX: 12100000 instructions simulated : ctaid=(13,4,0) tid=(15,3,0)
GPGPU-Sim PTX: 12200000 instructions simulated : ctaid=(12,6,0) tid=(4,3,0)
GPGPU-Sim uArch: cycles simulated: 32500  inst.: 11881861 (ipc=365.6) sim_rate=282901 (inst/sec) elapsed = 0:0:00:42 / Tue Apr 16 16:56:10 2019
GPGPU-Sim PTX: 12300000 instructions simulated : ctaid=(11,5,0) tid=(13,2,0)
GPGPU-Sim PTX: 12400000 instructions simulated : ctaid=(13,4,0) tid=(7,7,0)
GPGPU-Sim PTX: 12500000 instructions simulated : ctaid=(10,6,0) tid=(15,0,0)
GPGPU-Sim uArch: cycles simulated: 33000  inst.: 12200695 (ipc=369.7) sim_rate=283737 (inst/sec) elapsed = 0:0:00:43 / Tue Apr 16 16:56:11 2019
GPGPU-Sim uArch: Shader 14 finished CTA #2 (33062,0), 4 CTAs running
GPGPU-Sim uArch: core: 14, cta: 2 initialized @(33063,0)
GPGPU-Sim PTX: 12600000 instructions simulated : ctaid=(15,5,0) tid=(0,3,0)
GPGPU-Sim PTX: 12700000 instructions simulated : ctaid=(4,5,0) tid=(15,0,0)
GPGPU-Sim PTX: 12800000 instructions simulated : ctaid=(1,6,0) tid=(13,7,0)
GPGPU-Sim uArch: cycles simulated: 33500  inst.: 12506660 (ipc=373.3) sim_rate=284242 (inst/sec) elapsed = 0:0:00:44 / Tue Apr 16 16:56:12 2019
GPGPU-Sim PTX: 12900000 instructions simulated : ctaid=(9,2,0) tid=(4,7,0)
GPGPU-Sim uArch: Shader 7 finished CTA #2 (33632,0), 4 CTAs running
GPGPU-Sim uArch: core:  7, cta: 2 initialized @(33633,0)
GPGPU-Sim PTX: 13000000 instructions simulated : ctaid=(4,0,0) tid=(2,4,0)
GPGPU-Sim PTX: 13100000 instructions simulated : ctaid=(2,6,0) tid=(10,3,0)
GPGPU-Sim uArch: cycles simulated: 34000  inst.: 12787080 (ipc=376.1) sim_rate=284157 (inst/sec) elapsed = 0:0:00:45 / Tue Apr 16 16:56:13 2019
GPGPU-Sim PTX: 13200000 instructions simulated : ctaid=(7,0,0) tid=(13,3,0)
GPGPU-Sim PTX: 13300000 instructions simulated : ctaid=(8,6,0) tid=(15,4,0)
GPGPU-Sim PTX: 13400000 instructions simulated : ctaid=(14,6,0) tid=(12,4,0)
GPGPU-Sim uArch: cycles simulated: 34500  inst.: 13044832 (ipc=378.1) sim_rate=283583 (inst/sec) elapsed = 0:0:00:46 / Tue Apr 16 16:56:14 2019
GPGPU-Sim PTX: 13500000 instructions simulated : ctaid=(1,6,0) tid=(2,1,0)
GPGPU-Sim PTX: 13600000 instructions simulated : ctaid=(9,2,0) tid=(3,2,0)
GPGPU-Sim uArch: cycles simulated: 35000  inst.: 13307272 (ipc=380.2) sim_rate=283133 (inst/sec) elapsed = 0:0:00:47 / Tue Apr 16 16:56:15 2019
GPGPU-Sim PTX: 13700000 instructions simulated : ctaid=(9,6,0) tid=(15,1,0)
GPGPU-Sim PTX: 13800000 instructions simulated : ctaid=(6,0,0) tid=(5,4,0)
GPGPU-Sim PTX: 13900000 instructions simulated : ctaid=(0,5,0) tid=(6,5,0)
GPGPU-Sim uArch: cycles simulated: 35500  inst.: 13589957 (ipc=382.8) sim_rate=283124 (inst/sec) elapsed = 0:0:00:48 / Tue Apr 16 16:56:16 2019
GPGPU-Sim PTX: 14000000 instructions simulated : ctaid=(7,0,0) tid=(5,0,0)
GPGPU-Sim PTX: 14100000 instructions simulated : ctaid=(6,3,0) tid=(12,2,0)
GPGPU-Sim PTX: 14200000 instructions simulated : ctaid=(11,1,0) tid=(5,1,0)
GPGPU-Sim uArch: cycles simulated: 36000  inst.: 13875934 (ipc=385.4) sim_rate=283182 (inst/sec) elapsed = 0:0:00:49 / Tue Apr 16 16:56:17 2019
GPGPU-Sim PTX: 14300000 instructions simulated : ctaid=(8,4,0) tid=(7,6,0)
GPGPU-Sim PTX: 14400000 instructions simulated : ctaid=(3,0,0) tid=(13,5,0)
GPGPU-Sim PTX: 14500000 instructions simulated : ctaid=(8,2,0) tid=(5,1,0)
GPGPU-Sim uArch: cycles simulated: 36500  inst.: 14173295 (ipc=388.3) sim_rate=283465 (inst/sec) elapsed = 0:0:00:50 / Tue Apr 16 16:56:18 2019
GPGPU-Sim PTX: 14600000 instructions simulated : ctaid=(9,6,0) tid=(11,5,0)
GPGPU-Sim PTX: 14700000 instructions simulated : ctaid=(3,7,0) tid=(8,7,0)
GPGPU-Sim PTX: 14800000 instructions simulated : ctaid=(9,5,0) tid=(2,4,0)
GPGPU-Sim PTX: 14900000 instructions simulated : ctaid=(11,5,0) tid=(3,4,0)
GPGPU-Sim PTX: 15000000 instructions simulated : ctaid=(4,0,0) tid=(11,3,0)
GPGPU-Sim PTX: 15100000 instructions simulated : ctaid=(6,1,0) tid=(15,3,0)
GPGPU-Sim uArch: cycles simulated: 37500  inst.: 14780846 (ipc=394.2) sim_rate=289820 (inst/sec) elapsed = 0:0:00:51 / Tue Apr 16 16:56:19 2019
GPGPU-Sim PTX: 15200000 instructions simulated : ctaid=(11,4,0) tid=(14,5,0)
GPGPU-Sim PTX: 15300000 instructions simulated : ctaid=(14,6,0) tid=(10,5,0)
GPGPU-Sim uArch: Shader 14 finished CTA #3 (37793,0), 4 CTAs running
GPGPU-Sim uArch: core: 14, cta: 3 initialized @(37794,0)
GPGPU-Sim PTX: 15400000 instructions simulated : ctaid=(9,1,0) tid=(0,2,0)
GPGPU-Sim uArch: cycles simulated: 38000  inst.: 15057960 (ipc=396.3) sim_rate=289576 (inst/sec) elapsed = 0:0:00:52 / Tue Apr 16 16:56:20 2019
GPGPU-Sim PTX: 15500000 instructions simulated : ctaid=(14,6,0) tid=(2,3,0)
GPGPU-Sim PTX: 15600000 instructions simulated : ctaid=(8,3,0) tid=(15,6,0)
GPGPU-Sim PTX: 15700000 instructions simulated : ctaid=(7,5,0) tid=(6,1,0)
GPGPU-Sim uArch: cycles simulated: 38500  inst.: 15302251 (ipc=397.5) sim_rate=288721 (inst/sec) elapsed = 0:0:00:53 / Tue Apr 16 16:56:21 2019
GPGPU-Sim PTX: 15800000 instructions simulated : ctaid=(12,0,0) tid=(2,6,0)
GPGPU-Sim PTX: 15900000 instructions simulated : ctaid=(3,6,0) tid=(15,0,0)
GPGPU-Sim uArch: cycles simulated: 39000  inst.: 15510295 (ipc=397.7) sim_rate=287227 (inst/sec) elapsed = 0:0:00:54 / Tue Apr 16 16:56:22 2019
GPGPU-Sim PTX: 16000000 instructions simulated : ctaid=(11,6,0) tid=(6,2,0)
GPGPU-Sim PTX: 16100000 instructions simulated : ctaid=(2,7,0) tid=(15,1,0)
GPGPU-Sim uArch: cycles simulated: 39500  inst.: 15730156 (ipc=398.2) sim_rate=286002 (inst/sec) elapsed = 0:0:00:55 / Tue Apr 16 16:56:23 2019
GPGPU-Sim PTX: 16200000 instructions simulated : ctaid=(7,2,0) tid=(9,4,0)
GPGPU-Sim PTX: 16300000 instructions simulated : ctaid=(14,5,0) tid=(12,3,0)
GPGPU-Sim PTX: 16400000 instructions simulated : ctaid=(12,0,0) tid=(1,0,0)
GPGPU-Sim PTX: 16500000 instructions simulated : ctaid=(9,2,0) tid=(4,7,0)
GPGPU-Sim PTX: 16600000 instructions simulated : ctaid=(11,5,0) tid=(8,7,0)
GPGPU-Sim uArch: Shader 13 finished CTA #2 (40414,0), 4 CTAs running
GPGPU-Sim uArch: core: 13, cta: 2 initialized @(40415,0)
GPGPU-Sim uArch: cycles simulated: 40500  inst.: 16216556 (ipc=400.4) sim_rate=289581 (inst/sec) elapsed = 0:0:00:56 / Tue Apr 16 16:56:24 2019
GPGPU-Sim PTX: 16700000 instructions simulated : ctaid=(8,4,0) tid=(8,3,0)
GPGPU-Sim PTX: 16800000 instructions simulated : ctaid=(12,5,0) tid=(15,2,0)
GPGPU-Sim uArch: cycles simulated: 41000  inst.: 16450610 (ipc=401.2) sim_rate=288607 (inst/sec) elapsed = 0:0:00:57 / Tue Apr 16 16:56:25 2019
GPGPU-Sim PTX: 16900000 instructions simulated : ctaid=(4,0,0) tid=(6,2,0)
GPGPU-Sim PTX: 17000000 instructions simulated : ctaid=(8,5,0) tid=(9,2,0)
GPGPU-Sim PTX: 17100000 instructions simulated : ctaid=(8,3,0) tid=(12,3,0)
GPGPU-Sim uArch: cycles simulated: 41500  inst.: 16704828 (ipc=402.5) sim_rate=288014 (inst/sec) elapsed = 0:0:00:58 / Tue Apr 16 16:56:26 2019
GPGPU-Sim PTX: 17200000 instructions simulated : ctaid=(10,5,0) tid=(1,7,0)
GPGPU-Sim PTX: 17300000 instructions simulated : ctaid=(10,0,0) tid=(3,5,0)
GPGPU-Sim PTX: 17400000 instructions simulated : ctaid=(5,6,0) tid=(0,5,0)
GPGPU-Sim uArch: cycles simulated: 42000  inst.: 16956050 (ipc=403.7) sim_rate=287390 (inst/sec) elapsed = 0:0:00:59 / Tue Apr 16 16:56:27 2019
GPGPU-Sim PTX: 17500000 instructions simulated : ctaid=(14,6,0) tid=(15,3,0)
GPGPU-Sim uArch: Shader 5 finished CTA #1 (42247,0), 4 CTAs running
GPGPU-Sim uArch: core:  5, cta: 1 initialized @(42248,0)
GPGPU-Sim uArch: Shader 5 finished CTA #2 (42271,0), 4 CTAs running
GPGPU-Sim uArch: core:  5, cta: 2 initialized @(42272,0)
GPGPU-Sim PTX: 17600000 instructions simulated : ctaid=(6,1,0) tid=(12,0,0)
[...]
traffic_breakdown_memtocore[LOCAL_ACC_W] = 361496 {8:45187,}
maxmrqlatency = 628 
maxdqlatency = 0 
maxmflatency = 1999 
averagemflatency = 259 
max_icnt2mem_latency = 1092 
max_icnt2sh_latency = 146095 
mrq_lat_table:13459 	1629 	1160 	2071 	4823 	3516 	3240 	2022 	272 	10 	0 	0 	0 	0 	0 	0 	0 	0 	0 	0 	0 	0 	0 	0 	0 	0 	0 	0 	0 	0 	0 	0 	
dq_lat_table:0 	0 	0 	0 	0 	0 	0 	0 	0 	0 	0 	0 	0 	0 	0 	0 	0 	0 	0 	0 	0 	0 	0 	0 	0 	0 	0 	0 	0 	0 	0 	0 	
mf_lat_table:0 	0 	0 	0 	0 	0 	0 	50588 	8914 	4735 	851 	0 	0 	0 	0 	0 	0 	0 	0 	0 	0 	0 	0 	0 	0 	0 	0 	0 	0 	0 	0 	0 	
icnt2mem_lat_table:0 	0 	0 	21085 	13766 	13799 	29594 	2061 	2262 	509 	4 	0 	0 	0 	0 	0 	0 	0 	0 	0 	0 	0 	0 	0 	
icnt2sh_lat_table:0 	0 	0 	5347 	4453 	1681 	228 	0 	0 	186 	498 	1378 	3108 	2630 	6101 	11056 	22845 	5577 	0 	0 	0 	0 	0 	0 	
mf_lat_pw_table:0 	0 	0 	0 	0 	0 	0 	244 	6 	17 	2 	0 	0 	0 	0 	0 	0 	0 	0 	0 	0 	0 	0 	0 	0 	0 	0 	0 	0 	0 	0 	0 	
maximum concurrent accesses to same row:
dram[0]:        54        56        36        34        26        22        34        25        29        26        18        15        17        14        25        36 
dram[1]:        52        54        34        32        20        22        20        35        22        16        14        16        24        17        18        22 
dram[2]:        62        62        54        56        30        30        28        35        28        26        33        23        15        18        24        22 
dram[3]:        58        60        54        56        28        30        34        43        28        22        25        34        30        14        16        20 
dram[4]:        62        64        56        52        30        32        37        31        27        23        18        20        22        24        28        24 
dram[5]:        58        60        56        48        28        34        23        35        26        29        16        34        17        22        18        26 
maximum service time to same row:
dram[0]:     17771     14761     18925     20804     18552     16409     14333     16894     18475     18631     40985     21494     21795     22439     21322     24209 
dram[1]:     18463     12916     18596     17539     14981     16177     14309     25981     18574     18623     35997     27795     51279     44989     25725     24835 
dram[2]:     20238     21451     16705     31044     16466     16273     18416     18598     21408     18675     26390     19979     31355     29999     20517     19920 
dram[3]:     22661     19421     34130     31146     23119     16773     25678     20035     19218     20588     63747     19388     35802     29429     19789     31358 
dram[4]:     12225     26608     16548     17981     16355     16899     18543     17910     18725     18360     25637     20212     24104     24103     40332     19794 
dram[5]:     15475     18214     16584     29662     16391     13605     16923     16736     18285     18226     18022     28731     23816     28663     19797     20723 
average row accesses per activate:
dram[0]:  5.451613  4.952381  5.872340  4.608696  3.800000  3.556818  3.377551  3.787879  3.656863  3.727273  3.950617  3.152542  3.563107  3.795455  4.661290  4.493151 
dram[1]:  5.029412  5.781818  4.304348  4.810345  3.490566  3.584270  3.440367  3.949367  3.971154  3.400000  3.670103  3.950617  3.713043  3.978723  4.737705  4.553846 
dram[2]:  6.755102  5.875000  5.780000  6.088889  3.617978  2.982759  4.227273  4.541667  3.924731  3.747475  3.819277  3.277228  3.945652  3.923913  4.183099  4.532258 
dram[3]:  5.519231  5.150000  9.230769  6.234043  4.344262  3.254545  4.594203  4.031915  3.836735  3.562500  3.878049  3.523365  4.217949  3.880000  3.957747  3.523809 
dram[4]:  5.287879  6.659575  7.000000  5.295082  3.657143  3.547369  4.812500  3.237705  3.401639  3.603774  3.823529  3.819277  4.428571  3.757895  5.090909  4.625000 
dram[5]:  5.015385  5.327869  6.422222  4.981818  3.295652  4.012048  3.419048  3.735632  3.738739  4.040404  3.500000  4.328358  3.857143  4.853333  4.366197  5.250000 
average row locality = 32202/7817 = 4.119483
number of total memory accesses made:
dram[0]:         0         0         0         0         0         0         0         0         0         0         0         0         0         0         0         0 
dram[1]:         0         0         0         0         0         0         0         0         0         0         0         0         0         0         0         0 
dram[2]:         0         0         0         0         0         0         0         0         0         0         0         0         0         0         0         0 
dram[3]:         0         0         0         0         0         0         0         0         0         0         0         0         0         0         0         0 
dram[4]:         0         0         0         0         0         0         0         0         0         0         0         0         0         0         0         0 
dram[5]:         0         0         0         0         0         0         0         0         0         0         0         0         0         0         0         0 
total accesses: 0
min_bank_accesses = 0!
min_chip_accesses = 0!
number of total read accesses:
dram[0]:       152       138       118       132       145       133       136       153       154       147       127       153       156       144       128       141 
dram[1]:       152       136       123       117       150       131       150       127       166       164       144       128       180       158       128       128 
dram[2]:       143       146       121       119       133       138       148       134       150       151       130       131       153       151       133       125 
dram[3]:       127       134       101       124       110       147       132       154       150       158       127       155       137       163       126       130 
dram[4]:       156       141       121       136       158       137       125       164       170       155       131       131       156       155       124       133 
dram[5]:       145       144       126       117       157       137       147       136       168       160       155       119       170       154       137       114 
total reads: 13499
bank skew: 180/101 = 1.78
chip skew: 2293/2175 = 1.05
number of total write accesses:
dram[0]:       186       174       158       186       216       180       195       222       219       222       193       219       211       190       161       187 
dram[1]:       190       182       174       162       220       188       225       185       247       244       212       192       247       216       161       168 
dram[2]:       188       183       168       155       189       208       224       193       215       220       187       200       210       210       164       156 
dram[3]:       160       175       139       169       155       211       185       225       226       241       191       222       192       225       155       166 
dram[4]:       193       172       152       187       226       200       183       231       245       227       194       186       216       202       156       163 
dram[5]:       181       181       163       157       222       196       212       189       247       240       216       171       235       210       173       138 
total reads: 18703
bank skew: 247/138 = 1.79
chip skew: 3213/3037 = 1.06
average mf latency per bank:
dram[0]:        537       482       577       475       494       544       648       551       536       512       593       532       511       556       564       491
dram[1]:        581       462       504       508       456       502       551       587       463       435       500       568       428       452       521       496
dram[2]:        493       510       559       583       573       493       553       643       523       513       603       542       499       491       534       543
dram[3]:        524       557       639       545       632       481       614       531       489       463       573       497       549       451       557       529
dram[4]:        502       480       622       506       480       556       703       528       478       502       578       611       512       533       563       557
dram[5]:        509       461       545       527       440       514       545       575       455       445       475       601       433       484       491       582
maximum mf latency per bank:
dram[0]:       1295      1076      1674      1172      1999      1319      1373      1228      1356      1063      1289      1102      1497      1213      1244      1127
dram[1]:        985      1005      1318      1232      1284      1323      1277      1039      1064      1028      1095      1028       988       904       947       966
dram[2]:       1315      1333      1762      1750      1536      1530      1661      1442      1351      1508      1234      1318      1445      1273      1189      1332
dram[3]:       1138      1370      1535      1699      1341      1483      1218      1450      1156      1089      1000      1198      1148      1183      1053      1123
dram[4]:       1393      1514      1843      1844      1677      1619      1533      1589      1552      1374      1286      1359      1410      1402      1490      1311
dram[5]:       1365      1329      1802      1570      1635      1549      1784      1704      1337      1271      1235      1223      1320      1238      1312      1264

Number of Memory Banks Accessed per Memory Operation per Warp (from 0):
0	0	0	0	0	0	0	0	0	0	0	0	0	0	0	0	0	0	0	0	0	0	0	0	0	0	0	0	0	0	0	0	0	0	0	0	0	0	0	0	0	0	0	0	0	0	0	0	0	0	0	0	0	0	0	0	0	0	0	0	0	0	0	0	0	0	0	0	0	0	0	0	0	0	0	0	0	0	0	0	0	0	0	0	0	0	0	0	0	0	0	0	0	0	0	0	
Average # of Memory Banks Accessed per Memory Operation per Warp=-nan

position of mrq chosen
0	0	0	0	0	0	0	0	0	0	0	0	0	0	0	0	

average position of mrq chosen = -nan
Memory Partition 0: 
Cache L2_bank_000:
MSHR contents

Cache L2_bank_001:
MSHR contents

In Dram Latency Queue (total = 0): 
DRAM[0]: 16 bks, busW=4 BL=8 CL=12, tRRD=2 tCCD=6, tRCD=12 tRAS=28 tRP=12 tRC=40
n_cmd=192846 n_nop=179875 n_act=1347 n_pre=1331 n_req=5376 n_rd=4514 n_write=5779 bw_util=0.1067
n_activity=53304 dram_eff=0.3862
bk0: 304a 184198i bk1: 276a 184519i bk2: 236a 184280i bk3: 264a 183722i bk4: 290a 181163i bk5: 266a 182513i bk6: 272a 180950i bk7: 306a 180639i bk8: 308a 182014i bk9: 294a 182197i bk10: 254a 182501i bk11: 306a 181473i bk12: 312a 181391i bk13: 288a 181998i bk14: 256a 183918i bk15: 282a 183293i 
dram_util_bins: 0 0 0 0 0 0 0 0 0 0
dram_eff_bins: 0 0 0 0 0 0 0 0 0 0
mrqq: max=16 avg=1.18592
Memory Partition 1: 
Cache L2_bank_002:
MSHR contents

Cache L2_bank_003:
MSHR contents

In Dram Latency Queue (total = 0): 
DRAM[1]: 16 bks, busW=4 BL=8 CL=12, tRRD=2 tCCD=6, tRCD=12 tRAS=28 tRP=12 tRC=40
n_cmd=192846 n_nop=179603 n_act=1370 n_pre=1354 n_req=5495 n_rd=4564 n_write=5955 bw_util=0.1091
n_activity=55172 dram_eff=0.3813
bk0: 304a 183484i bk1: 272a 184541i bk2: 246a 183764i bk3: 234a 184564i bk4: 300a 180489i bk5: 262a 182041i bk6: 300a 180396i bk7: 254a 182140i bk8: 332a 181413i bk9: 328a 180917i bk10: 288a 182279i bk11: 256a 182489i bk12: 360a 180094i bk13: 316a 182251i bk14: 256a 184172i bk15: 256a 183788i 
dram_util_bins: 0 0 0 0 0 0 0 0 0 0
dram_eff_bins: 0 0 0 0 0 0 0 0 0 0
mrqq: max=16 avg=1.12695
Memory Partition 2: 
Cache L2_bank_004:
MSHR contents

Cache L2_bank_005:
MSHR contents

In Dram Latency Queue (total = 0): 
DRAM[2]: 16 bks, busW=4 BL=8 CL=12, tRRD=2 tCCD=6, tRCD=12 tRAS=28 tRP=12 tRC=40
n_cmd=192846 n_nop=180247 n_act=1258 n_pre=1242 n_req=5276 n_rd=4412 n_write=5687 bw_util=0.1047
n_activity=52726 dram_eff=0.3831
bk0: 286a 184401i bk1: 292a 184569i bk2: 242a 184760i bk3: 238a 184776i bk4: 266a 182293i bk5: 276a 181580i bk6: 296a 180136i bk7: 268a 181395i bk8: 300a 182159i bk9: 302a 181960i bk10: 260a 182508i bk11: 262a 182516i bk12: 306a 181899i bk13: 302a 181307i bk14: 266a 183311i bk15: 250a 183947i 
dram_util_bins: 0 0 0 0 0 0 0 0 0 0
dram_eff_bins: 0 0 0 0 0 0 0 0 0 0
mrqq: max=16 avg=1.18317
Memory Partition 3: 
Cache L2_bank_006:
MSHR contents

Cache L2_bank_007:
MSHR contents

In Dram Latency Queue (total = 0): 
DRAM[3]: 16 bks, busW=4 BL=8 CL=12, tRRD=2 tCCD=6, tRCD=12 tRAS=28 tRP=12 tRC=40
n_cmd=192846 n_nop=180398 n_act=1251 n_pre=1235 n_req=5212 n_rd=4350 n_write=5612 bw_util=0.1033
n_activity=52525 dram_eff=0.3793
bk0: 254a 185572i bk1: 268a 184599i bk2: 202a 185874i bk3: 248a 184594i bk4: 220a 184405i bk5: 294a 181858i bk6: 264a 182572i bk7: 308a 181077i bk8: 300a 182354i bk9: 316a 181629i bk10: 254a 182673i bk11: 310a 180898i bk12: 274a 182761i bk13: 326a 181402i bk14: 252a 183380i bk15: 260a 183372i 
dram_util_bins: 0 0 0 0 0 0 0 0 0 0
dram_eff_bins: 0 0 0 0 0 0 0 0 0 0
mrqq: max=16 avg=1.14015
Memory Partition 4: 
Cache L2_bank_008:
MSHR contents

Cache L2_bank_009:
MSHR contents

In Dram Latency Queue (total = 0): 
DRAM[4]: 16 bks, busW=4 BL=8 CL=12, tRRD=2 tCCD=6, tRCD=12 tRAS=28 tRP=12 tRC=40
n_cmd=192846 n_nop=179879 n_act=1293 n_pre=1277 n_req=5426 n_rd=4586 n_write=5811 bw_util=0.1078
n_activity=54344 dram_eff=0.3826
bk0: 312a 183999i bk1: 282a 185198i bk2: 242a 184848i bk3: 272a 183927i bk4: 316a 180937i bk5: 274a 181806i bk6: 250a 181739i bk7: 328a 180065i bk8: 340a 180777i bk9: 310a 180984i bk10: 262a 182275i bk11: 262a 182439i bk12: 312a 181631i bk13: 310a 181345i bk14: 248a 184352i bk15: 266a 183741i 
dram_util_bins: 0 0 0 0 0 0 0 0 0 0
dram_eff_bins: 0 0 0 0 0 0 0 0 0 0
mrqq: max=16 avg=1.20793
Memory Partition 5: 
Cache L2_bank_010:
MSHR contents

Cache L2_bank_011:
MSHR contents

In Dram Latency Queue (total = 0): 
DRAM[5]: 16 bks, busW=4 BL=8 CL=12, tRRD=2 tCCD=6, tRCD=12 tRAS=28 tRP=12 tRC=40
n_cmd=192846 n_nop=179898 n_act=1298 n_pre=1282 n_req=5417 n_rd=4572 n_write=5796 bw_util=0.1075
n_activity=55617 dram_eff=0.3728
bk0: 290a 184107i bk1: 288a 184576i bk2: 252a 184478i bk3: 234a 184862i bk4: 314a 180838i bk5: 274a 182759i bk6: 294a 181024i bk7: 272a 182018i bk8: 336a 181533i bk9: 320a 181845i bk10: 310a 182014i bk11: 238a 183664i bk12: 340a 181056i bk13: 308a 181990i bk14: 274a 183770i bk15: 228a 184876i 
dram_util_bins: 0 0 0 0 0 0 0 0 0 0
dram_eff_bins: 0 0 0 0 0 0 0 0 0 0
mrqq: max=16 avg=1.13311

========= L2 cache stats =========
L2_cache_bank[0]: Access = 6926, Miss = 1116, Miss_rate = 0.161, Pending_hits = 88, Reservation_fails = 1034
L2_cache_bank[1]: Access = 7074, Miss = 1141, Miss_rate = 0.161, Pending_hits = 67, Reservation_fails = 600
L2_cache_bank[2]: Access = 6982, Miss = 1193, Miss_rate = 0.171, Pending_hits = 97, Reservation_fails = 925
L2_cache_bank[3]: Access = 6767, Miss = 1089, Miss_rate = 0.161, Pending_hits = 71, Reservation_fails = 415
L2_cache_bank[4]: Access = 6685, Miss = 1111, Miss_rate = 0.166, Pending_hits = 74, Reservation_fails = 952
L2_cache_bank[5]: Access = 6847, Miss = 1095, Miss_rate = 0.160, Pending_hits = 79, Reservation_fails = 380
L2_cache_bank[6]: Access = 6868, Miss = 1010, Miss_rate = 0.147, Pending_hits = 75, Reservation_fails = 379
L2_cache_bank[7]: Access = 7089, Miss = 1165, Miss_rate = 0.164, Pending_hits = 86, Reservation_fails = 414
L2_cache_bank[8]: Access = 7166, Miss = 1141, Miss_rate = 0.159, Pending_hits = 77, Reservation_fails = 644
L2_cache_bank[9]: Access = 6793, Miss = 1152, Miss_rate = 0.170, Pending_hits = 55, Reservation_fails = 310
L2_cache_bank[10]: Access = 7049, Miss = 1205, Miss_rate = 0.171, Pending_hits = 86, Reservation_fails = 629
L2_cache_bank[11]: Access = 6834, Miss = 1081, Miss_rate = 0.158, Pending_hits = 66, Reservation_fails = 420
L2_total_cache_accesses = 83080
L2_total_cache_misses = 13499
L2_total_cache_miss_rate = 0.1625
L2_total_cache_pending_hits = 921
L2_total_cache_reservation_fails = 7102
L2_total_cache_breakdown:
	L2_cache_stats_breakdown[GLOBAL_ACC_R][HIT] = 3716
	L2_cache_stats_breakdown[GLOBAL_ACC_R][HIT_RESERVED] = 15
	L2_cache_stats_breakdown[GLOBAL_ACC_R][MISS] = 169
	L2_cache_stats_breakdown[GLOBAL_ACC_R][RESERVATION_FAIL] = 366
	L2_cache_stats_breakdown[LOCAL_ACC_R][HIT] = 7253
	L2_cache_stats_breakdown[LOCAL_ACC_R][HIT_RESERVED] = 95
	L2_cache_stats_breakdown[LOCAL_ACC_R][MISS] = 431
	L2_cache_stats_breakdown[CONST_ACC_R][HIT] = 22
	L2_cache_stats_breakdown[CONST_ACC_R][HIT_RESERVED] = 6
	L2_cache_stats_breakdown[CONST_ACC_R][MISS] = 2
	L2_cache_stats_breakdown[CONST_ACC_R][RESERVATION_FAIL] = 574
	L2_cache_stats_breakdown[GLOBAL_ACC_W][HIT] = 5509
	L2_cache_stats_breakdown[GLOBAL_ACC_W][HIT_RESERVED] = 635
	L2_cache_stats_breakdown[GLOBAL_ACC_W][MISS] = 2048
	L2_cache_stats_breakdown[GLOBAL_ACC_W][RESERVATION_FAIL] = 7
	L2_cache_stats_breakdown[LOCAL_ACC_W][HIT] = 35572
	L2_cache_stats_breakdown[LOCAL_ACC_W][HIT_RESERVED] = 14
	L2_cache_stats_breakdown[LOCAL_ACC_W][MISS] = 9601
	L2_cache_stats_breakdown[LOCAL_ACC_W][RESERVATION_FAIL] = 178
	L2_cache_stats_breakdown[L1_WRBK_ACC][HIT] = 3834
	L2_cache_stats_breakdown[L1_WRBK_ACC][MISS] = 1193
	L2_cache_stats_breakdown[INST_ACC_R][HIT] = 12754
	L2_cache_stats_breakdown[INST_ACC_R][HIT_RESERVED] = 156
	L2_cache_stats_breakdown[INST_ACC_R][MISS] = 55
	L2_cache_stats_breakdown[INST_ACC_R][RESERVATION_FAIL] = 5977
L2_cache_data_port_util = 0.150
L2_cache_fill_port_util = 0.031

icnt_total_pkts_mem_to_simt=176689
icnt_total_pkts_simt_to_mem=297018
LD_mem_lat_dist  0 0 0 0 0 0 0 0 0 0 0 0 0 0 0 0 0 0 0 0 0 0 0 0 0 0 0
ST_mem_lat_dist  0 0 0 0 0 0 0 0 0 0 0 0 0 0 0 0 0 0 0 0 0 0 0 0 0 0 0
----------------------------Interconnect-DETAILS--------------------------------
Class 0:
Packet latency average = 17.151
	minimum = 6
	maximum = 703
Network latency average = 13.4886
	minimum = 6
	maximum = 678
Slowest packet = 707
Flit latency average = 12.5322
	minimum = 6
	maximum = 674
Slowest flit = 10925
Fragmentation average = 0.107768
	minimum = 0
	maximum = 551
Injected packet rate average = 0.0408491
	minimum = 0.0338065 (at node 1)
	maximum = 0.0458534 (at node 23)
Accepted packet rate average = 0.0408491
	minimum = 0.0321159 (at node 1)
	maximum = 0.0490499 (at node 23)
Injected flit rate average = 0.12009
	minimum = 0.0931442 (at node 19)
	maximum = 0.144343 (at node 10)
Accepted flit rate average= 0.12009
	minimum = 0.0663126 (at node 1)
	maximum = 0.172305 (at node 23)
Injected packet length average = 2.93985
Accepted packet length average = 2.93985
Total in-flight flits = 0 (0 measured)
====== Overall Traffic Statistics ======
====== Traffic class 0 ======
Packet latency average = 17.151 (1 samples)
	minimum = 6 (1 samples)
	maximum = 703 (1 samples)
Network latency average = 13.4886 (1 samples)
	minimum = 6 (1 samples)
	maximum = 678 (1 samples)
Flit latency average = 12.5322 (1 samples)
	minimum = 6 (1 samples)
	maximum = 674 (1 samples)
Fragmentation average = 0.107768 (1 samples)
	minimum = 0 (1 samples)
	maximum = 551 (1 samples)
Injected packet rate average = 0.0408491 (1 samples)
	minimum = 0.0338065 (1 samples)
	maximum = 0.0458534 (1 samples)
Accepted packet rate average = 0.0408491 (1 samples)
	minimum = 0.0321159 (1 samples)
	maximum = 0.0490499 (1 samples)
Injected flit rate average = 0.12009 (1 samples)
	minimum = 0.0931442 (1 samples)
	maximum = 0.144343 (1 samples)
Accepted flit rate average = 0.12009 (1 samples)
	minimum = 0.0663126 (1 samples)
	maximum = 0.172305 (1 samples)
Injected packet size average = 2.93985 (1 samples)
Accepted packet size average = 2.93985 (1 samples)
Hops average = 1 (1 samples)
----------------------------END-of-Interconnect-DETAILS-------------------------


gpgpu_simulation_time = 0 days, 0 hrs, 3 min, 56 sec (236 sec)
gpgpu_simulation_rate = 265604 (inst/sec)
gpgpu_simulation_rate = 619 (cycle/sec)
GPGPU-Sim: synchronize waiting for inactive GPU simulation
GPGPU-Sim API: Stream Manager State
GPGPU-Sim: detected inactive GPU simulation thread

checksum=75ef40cb5b8e
Kernel Time: 235617.921875 
