

        *** GPGPU-Sim Simulator Version 3.2.2  [build 0] ***


GPGPU-Sim PTX: simulation mode 0 (can change with PTX_SIM_MODE_FUNC environment variable:
               1=functional simulation only, 0=detailed performance simulator)
GPGPU-Sim: Configuration options:

-network_mode                           1 # Interconnection network mode
-inter_config_file   config_fermi_islip.icnt # Interconnection network config file
-gpgpu_ptx_use_cuobjdump                    1 # Use cuobjdump to extract ptx and sass from binaries
-gpgpu_experimental_lib_support                    0 # Try to extract code from cuda libraries [Broken because of unknown cudaGetExportTable]
-gpgpu_ptx_convert_to_ptxplus                    0 # Convert SASS (native ISA) to ptxplus and run ptxplus
-gpgpu_ptx_force_max_capability                   20 # Force maximum compute capability
-gpgpu_ptx_inst_debug_to_file                    0 # Dump executed instructions' debug information to file
-gpgpu_ptx_inst_debug_file       inst_debug.txt # Executed instructions' debug output file
-gpgpu_ptx_inst_debug_thread_uid                    1 # Thread UID for executed instructions' debug output
-gpgpu_simd_model                       1 # 1 = post-dominator
-gpgpu_shader_core_pipeline              1536:32 # shader core pipeline config, i.e., {<nthread>:<warpsize>}
-gpgpu_tex_cache:l1  4:128:24,L:R:m:N:L,F:128:4,128:2 # per-shader L1 texture cache  (READ-ONLY) config  {<nsets>:<bsize>:<assoc>,<rep>:<wr>:<alloc>:<wr_alloc>,<mshr>:<N>:<merge>,<mq>:<rf>}
-gpgpu_const_cache:l1 64:64:2,L:R:f:N:L,A:2:32,4 # per-shader L1 constant memory cache  (READ-ONLY) config  {<nsets>:<bsize>:<assoc>,<rep>:<wr>:<alloc>:<wr_alloc>,<mshr>:<N>:<merge>,<mq>} 
-gpgpu_cache:il1     4:128:4,L:R:f:N:L,A:2:32,4 # shader L1 instruction cache config  {<nsets>:<bsize>:<assoc>,<rep>:<wr>:<alloc>:<wr_alloc>,<mshr>:<N>:<merge>,<mq>} 
-gpgpu_cache:dl1     32:128:8,L:L:m:N:H,A:32:8,8 # per-shader L1 data cache config  {<nsets>:<bsize>:<assoc>,<rep>:<wr>:<alloc>:<wr_alloc>,<mshr>:<N>:<merge>,<mq> | none}
-gpgpu_cache:dl1PrefL1                 none # per-shader L1 data cache config  {<nsets>:<bsize>:<assoc>,<rep>:<wr>:<alloc>:<wr_alloc>,<mshr>:<N>:<merge>,<mq> | none}
-gpgpu_cache:dl1PreShared                 none # per-shader L1 data cache config  {<nsets>:<bsize>:<assoc>,<rep>:<wr>:<alloc>:<wr_alloc>,<mshr>:<N>:<merge>,<mq> | none}
-gmem_skip_L1D                          0 # global memory access skip L1D cache (implements -Xptxas -dlcm=cg, default=no skip)
-gpgpu_perfect_mem                      0 # enable perfect memory mode (no cache miss)
-n_regfile_gating_group                    4 # group of lanes that should be read/written together)
-gpgpu_clock_gated_reg_file                    0 # enable clock gated reg file for power calculations
-gpgpu_clock_gated_lanes                    0 # enable clock gated lanes for power calculations
-gpgpu_shader_registers                32768 # Number of registers per shader core. Limits number of concurrent CTAs. (default 8192)
-gpgpu_shader_cta                       8 # Maximum number of concurrent CTAs in shader (default 8)
-gpgpu_num_cta_barriers                   16 # Maximum number of named barriers per CTA (default 16)
-gpgpu_n_clusters                      15 # number of processing clusters
-gpgpu_n_cores_per_cluster                    1 # number of simd cores per cluster
-gpgpu_n_cluster_ejection_buffer_size                    8 # number of packets in ejection buffer
-gpgpu_n_ldst_response_buffer_size                    2 # number of response packets in ld/st unit ejection buffer
-gpgpu_shmem_size                   16384 # Size of shared memory per shader core (default 16kB)
-gpgpu_shmem_size                   49152 # Size of shared memory per shader core (default 16kB)
-gpgpu_shmem_size_PrefL1                16384 # Size of shared memory per shader core (default 16kB)
-gpgpu_shmem_size_PrefShared                16384 # Size of shared memory per shader core (default 16kB)
-gpgpu_shmem_num_banks                   32 # Number of banks in the shared memory in each shader core (default 16)
-gpgpu_shmem_limited_broadcast                    0 # Limit shared memory to do one broadcast per cycle (default on)
-gpgpu_shmem_warp_parts                    1 # Number of portions a warp is divided into for shared memory bank conflict check 
-gpgpu_warpdistro_shader                   -1 # Specify which shader core to collect the warp size distribution from
-gpgpu_warp_issue_shader                    0 # Specify which shader core to collect the warp issue distribution from
-gpgpu_local_mem_map                    1 # Mapping from local memory space address to simulated GPU physical address space (default = enabled)
-gpgpu_num_reg_banks                   16 # Number of register banks (default = 8)
-gpgpu_reg_bank_use_warp_id                    0 # Use warp ID in mapping registers to banks (default = off)
-gpgpu_operand_collector_num_units_sp                    6 # number of collector units (default = 4)
-gpgpu_operand_collector_num_units_sfu                    8 # number of collector units (default = 4)
-gpgpu_operand_collector_num_units_mem                    2 # number of collector units (default = 2)
-gpgpu_operand_collector_num_units_gen                    0 # number of collector units (default = 0)
-gpgpu_operand_collector_num_in_ports_sp                    2 # number of collector unit in ports (default = 1)
-gpgpu_operand_collector_num_in_ports_sfu                    1 # number of collector unit in ports (default = 1)
-gpgpu_operand_collector_num_in_ports_mem                    1 # number of collector unit in ports (default = 1)
-gpgpu_operand_collector_num_in_ports_gen                    0 # number of collector unit in ports (default = 0)
-gpgpu_operand_collector_num_out_ports_sp                    2 # number of collector unit in ports (default = 1)
-gpgpu_operand_collector_num_out_ports_sfu                    1 # number of collector unit in ports (default = 1)
-gpgpu_operand_collector_num_out_ports_mem                    1 # number of collector unit in ports (default = 1)
-gpgpu_operand_collector_num_out_ports_gen                    0 # number of collector unit in ports (default = 0)
-gpgpu_coalesce_arch                   13 # Coalescing arch (default = 13, anything else is off for now)
-gpgpu_num_sched_per_core                    2 # Number of warp schedulers per core
-gpgpu_max_insn_issue_per_warp                    1 # Max number of instructions that can be issued per warp in one cycle by scheduler
-gpgpu_simt_core_sim_order                    1 # Select the simulation order of cores in a cluster (0=Fix, 1=Round-Robin)
-gpgpu_pipeline_widths        2,1,1,2,1,1,2 # Pipeline widths ID_OC_SP,ID_OC_SFU,ID_OC_MEM,OC_EX_SP,OC_EX_SFU,OC_EX_MEM,EX_WB
-gpgpu_num_sp_units                     2 # Number of SP units (default=1)
-gpgpu_num_sfu_units                    1 # Number of SF units (default=1)
-gpgpu_num_mem_units                    1 # Number if ldst units (default=1) WARNING: not hooked up to anything
-gpgpu_scheduler                      gto # Scheduler configuration: < lrr | gto | two_level_active > If two_level_active:<num_active_warps>:<inner_prioritization>:<outer_prioritization>For complete list of prioritization values see shader.h enum scheduler_prioritization_typeDefault: gto
-gpgpu_dram_scheduler                    1 # 0 = fifo, 1 = FR-FCFS (defaul)
-gpgpu_dram_partition_queues              8:8:8:8 # i2$:$2d:d2$:$2i
-l2_ideal                               0 # Use a ideal L2 cache that always hit
-gpgpu_cache:dl2     64:128:8,L:B:m:W:L,A:32:4,4:0,32 # unified banked L2 data cache config  {<nsets>:<bsize>:<assoc>,<rep>:<wr>:<alloc>:<wr_alloc>,<mshr>:<N>:<merge>,<mq>}
-gpgpu_cache:dl2_texture_only                    0 # L2 cache used for texture only
-gpgpu_n_mem                            6 # number of memory modules (e.g. memory controllers) in gpu
-gpgpu_n_sub_partition_per_mchannel                    2 # number of memory subpartition in each memory module
-gpgpu_n_mem_per_ctrlr                    2 # number of memory chips per memory controller
-gpgpu_memlatency_stat                   14 # track and display latency statistics 0x2 enables MC, 0x4 enables queue logs
-gpgpu_frfcfs_dram_sched_queue_size                   16 # 0 = unlimited (default); # entries per chip
-gpgpu_dram_return_queue_size                  116 # 0 = unlimited (default); # entries per chip
-gpgpu_dram_buswidth                    4 # default = 4 bytes (8 bytes per cycle at DDR)
-gpgpu_dram_burst_length                    8 # Burst length of each DRAM request (default = 4 data bus cycle)
-dram_data_command_freq_ratio                    4 # Frequency ratio between DRAM data bus and command bus (default = 2 times, i.e. DDR)
-gpgpu_dram_timing_opt nbk=16:CCD=2:RRD=6:RCD=12:RAS=28:RP=12:RC=40: CL=12:WL=4:CDLR=5:WR=12:nbkgrp=4:CCDL=3:RTPL=2 # DRAM timing parameters = {nbk:tCCD:tRRD:tRCD:tRAS:tRP:tRC:CL:WL:tCDLR:tWR:nbkgrp:tCCDL:tRTPL}
-rop_latency                          120 # ROP queue latency (default 85)
-dram_latency                         100 # DRAM latency (default 30)
-gpgpu_mem_addr_mapping dramid@8;00000000.00000000.00000000.00000000.0000RRRR.RRRRRRRR.BBBCCCCB.CCSSSSSS # mapping memory address to dram model {dramid@<start bit>;<memory address map>}
-gpgpu_mem_addr_test                    0 # run sweep test to check address mapping for aliased address
-gpgpu_mem_address_mask                    1 # 0 = old addressing mask, 1 = new addressing mask, 2 = new add. mask + flipped bank sel and chip sel bits
-gpuwattch_xml_file  gpuwattch_gtx480.xml # GPUWattch XML file
-power_simulation_enabled                    1 # Turn on power simulator (1=On, 0=Off)
-power_per_cycle_dump                    0 # Dump detailed power output each cycle
-power_trace_enabled                    0 # produce a file for the power trace (1=On, 0=Off)
-power_trace_zlevel                     6 # Compression level of the power trace output log (0=no comp, 9=highest)
-steady_power_levels_enabled                    0 # produce a file for the steady power levels (1=On, 0=Off)
-steady_state_definition                  8:4 # allowed deviation:number of samples
-gpgpu_max_cycle                        0 # terminates gpu simulation early (0 = no limit)
-gpgpu_max_insn                         0 # terminates gpu simulation early (0 = no limit)
-gpgpu_max_cta                          0 # terminates gpu simulation early (0 = no limit)
-gpgpu_runtime_stat                   500 # display runtime statistics such as dram utilization {<freq>:<flag>}
-liveness_message_freq                    1 # Minimum number of seconds between simulation liveness messages (0 = always print)
-gpgpu_flush_l1_cache                    0 # Flush L1 cache at the end of each kernel call
-gpgpu_flush_l2_cache                    0 # Flush L2 cache at the end of each kernel call
-gpgpu_deadlock_detect                    1 # Stop the simulation at deadlock (1=on (default), 0=off)
-gpgpu_ptx_instruction_classification                    0 # if enabled will classify ptx instruction types per kernel (Max 255 kernels now)
-gpgpu_ptx_sim_mode                     0 # Select between Performance (default) or Functional simulation (1)
-gpgpu_clock_domains 700.0:700.0:700.0:924.0 # Clock Domain Frequencies in MhZ {<Core Clock>:<ICNT Clock>:<L2 Clock>:<DRAM Clock>}
-gpgpu_max_concurrent_kernel                    8 # maximum kernels that can run concurrently on GPU
-gpgpu_cflog_interval                    0 # Interval between each snapshot in control flow logger
-visualizer_enabled                     0 # Turn on visualizer output (1=On, 0=Off)
-visualizer_outputfile                 NULL # Specifies the output log file for visualizer
-visualizer_zlevel                      6 # Compression level of the visualizer output log (0=no comp, 9=highest)
-trace_enabled                          0 # Turn on traces
-trace_components                    none # comma seperated list of traces to enable. Complete list found in trace_streams.tup. Default none
-trace_sampling_core                    0 # The core which is printed using CORE_DPRINTF. Default 0
-trace_sampling_memory_partition                   -1 # The memory partition which is printed using MEMPART_DPRINTF. Default -1 (i.e. all)
-enable_ptx_file_line_stats                    1 # Turn on PTX source line statistic profiling. (1 = On)
-ptx_line_stats_filename gpgpu_inst_stats.txt # Output file for PTX source line statistics.
-save_embedded_ptx                      0 # saves ptx files embedded in binary as <n>.ptx
-keep                                   0 # keep intermediate files created by GPGPU-Sim when interfacing with external programs
-gpgpu_ptx_save_converted_ptxplus                    0 # Saved converted ptxplus to a file
-ptx_opcode_latency_int         4,13,4,5,145 # Opcode latencies for integers <ADD,MAX,MUL,MAD,DIV>Default 1,1,19,25,145
-ptx_opcode_latency_fp          4,13,4,5,39 # Opcode latencies for single precision floating points <ADD,MAX,MUL,MAD,DIV>Default 1,1,1,1,30
-ptx_opcode_latency_dp         8,19,8,8,330 # Opcode latencies for double precision floating points <ADD,MAX,MUL,MAD,DIV>Default 8,8,8,8,335
-ptx_opcode_initiation_int            1,2,2,1,8 # Opcode initiation intervals for integers <ADD,MAX,MUL,MAD,DIV>Default 1,1,4,4,32
-ptx_opcode_initiation_fp            1,2,1,1,4 # Opcode initiation intervals for single precision floating points <ADD,MAX,MUL,MAD,DIV>Default 1,1,1,1,5
-ptx_opcode_initiation_dp         8,16,8,8,130 # Opcode initiation intervals for double precision floating points <ADD,MAX,MUL,MAD,DIV>Default 8,8,8,8,130
DRAM Timing Options:
nbk                                    16 # number of banks
CCD                                     2 # column to column delay
RRD                                     6 # minimal delay between activation of rows in different banks
RCD                                    12 # row to column delay
RAS                                    28 # time needed to activate row
RP                                     12 # time needed to precharge (deactivate) row
RC                                     40 # row cycle time
CDLR                                    5 # switching from write to read (changes tWTR)
WR                                     12 # last data-in to row precharge
CL                                     12 # CAS latency
WL                                      4 # Write latency
nbkgrp                                  4 # number of bank groups
CCDL                                    3 # column to column delay between accesses to different bank groups
RTPL                                    2 # read to precharge delay between accesses to different bank groups
Total number of memory sub partition = 12
addr_dec_mask[CHIP]  = 0000000000000000 	high:64 low:0
addr_dec_mask[BK]    = 000000000000e100 	high:16 low:8
addr_dec_mask[ROW]   = 000000000fff0000 	high:28 low:16
addr_dec_mask[COL]   = 0000000000001eff 	high:13 low:0
addr_dec_mask[BURST] = 000000000000003f 	high:6 low:0
sub_partition_id_mask = 0000000000000100
GPGPU-Sim uArch: clock freqs: 700000000.000000:700000000.000000:700000000.000000:924000000.000000
GPGPU-Sim uArch: clock periods: 0.00000000142857142857:0.00000000142857142857:0.00000000142857142857:0.00000000108225108225
*** Initializing Memory Statistics ***
GPGPU-Sim uArch: interconnect node map (shaderID+MemID to icntID)
GPGPU-Sim uArch: Memory nodes ID start from index: 15
GPGPU-Sim uArch:    0   1   2   3   4
GPGPU-Sim uArch:    5   6   7   8   9
GPGPU-Sim uArch:   10  11  12  13  14
GPGPU-Sim uArch:   15  16  17  18  19
GPGPU-Sim uArch:   20  21  22  23  24
GPGPU-Sim uArch:   25  26
GPGPU-Sim uArch: interconnect node reverse map (icntID to shaderID+MemID)
GPGPU-Sim uArch: Memory nodes start from ID: 15
GPGPU-Sim uArch:    0   1   2   3   4
GPGPU-Sim uArch:    5   6   7   8   9
GPGPU-Sim uArch:   10  11  12  13  14
GPGPU-Sim uArch:   15  16  17  18  19
GPGPU-Sim uArch:   20  21  22  23  24
GPGPU-Sim uArch:   25  26
42f7b457b4f8bc5f243a2d9180567621  /home/scratch/adwait/applications/benchmarks/CUDA/BlackScholes/gpgpu_ptx_sim__BlackScholes
GPGPU-Sim uArch: performance model initialization complete.
GPGPU-Sim PTX: __cudaRegisterFatBinary, fat_cubin_handle = 1, filename=BlackScholes.cu
self exe links to: /home/scratch/adwait/applications/benchmarks/CUDA/BlackScholes/gpgpu_ptx_sim__BlackScholes
Running md5sum using "md5sum /home/scratch/adwait/applications/benchmarks/CUDA/BlackScholes/gpgpu_ptx_sim__BlackScholes "
Running cuobjdump using "$CUDA_INSTALL_PATH/bin/cuobjdump -ptx -elf -sass /home/scratch/adwait/applications/benchmarks/CUDA/BlackScholes/gpgpu_ptx_sim__BlackScholes > _cuobjdump_complete_output_p8EmRi"
Parsing file _cuobjdump_complete_output_p8EmRi
######### cuobjdump parser ########
## Adding new section ELF
Adding arch: sm_20
Adding identifier: BlackScholes.cu
## Adding new section PTX
Adding ptx filename: _cuobjdump_1.ptx
Adding arch: sm_20
Adding identifier: BlackScholes.cu
Done parsing!!!
GPGPU-Sim PTX: __cudaRegisterFunction _Z15BlackScholesGPUPfS_S_S_S_ffi : hostFun 0x0x4050ed, fat_cubin_handle = 1
GPGPU-Sim PTX: instruction assembly for function '_Z15BlackScholesGPUPfS_S_S_S_ffi'...   done.
GPGPU-Sim PTX: finding reconvergence points for '_Z15BlackScholesGPUPfS_S_S_S_ffi'...
GPGPU-Sim PTX: Finding dominators for '_Z15BlackScholesGPUPfS_S_S_S_ffi'...
GPGPU-Sim PTX: Finding immediate dominators for '_Z15BlackScholesGPUPfS_S_S_S_ffi'...
GPGPU-Sim PTX: Finding postdominators for '_Z15BlackScholesGPUPfS_S_S_S_ffi'...
GPGPU-Sim PTX: Finding immediate postdominators for '_Z15BlackScholesGPUPfS_S_S_S_ffi'...
GPGPU-Sim PTX: pre-decoding instructions for '_Z15BlackScholesGPUPfS_S_S_S_ffi'...
GPGPU-Sim PTX: reconvergence points for _Z15BlackScholesGPUPfS_S_S_S_ffi...
GPGPU-Sim PTX:  1 (potential) branch divergence @  PC=0x040 (_1.ptx:76) @%p1 bra $Lt_0_2818;
GPGPU-Sim PTX:    immediate post dominator      @  PC=0x3f8 (_1.ptx:200) exit;
GPGPU-Sim PTX:  2 (potential) branch divergence @  PC=0x3f0 (_1.ptx:197) @%p4 bra $Lt_0_3330;
GPGPU-Sim PTX:    immediate post dominator      @  PC=0x3f8 (_1.ptx:200) exit;
GPGPU-Sim PTX: ... end of reconvergence points for _Z15BlackScholesGPUPfS_S_S_S_ffi
GPGPU-Sim PTX: ... done pre-decoding instructions for '_Z15BlackScholesGPUPfS_S_S_S_ffi'.
GPGPU-Sim PTX: finished parsing EMBEDDED .ptx file _1.ptx
Adding _cuobjdump_1.ptx with cubin handle 1
GPGPU-Sim PTX: extracting embedded .ptx to temporary file "_ptx_hFDKYZ"
Running: cat _ptx_hFDKYZ | sed 's/.version 1.5/.version 1.4/' | sed 's/, texmode_independent//' | sed 's/\(\.extern \.const\[1\] .b8 \w\+\)\[\]/\1\[1\]/' | sed 's/const\[.\]/const\[0\]/g' > _ptx2_BFWw6G
GPGPU-Sim PTX: generating ptxinfo using "$CUDA_INSTALL_PATH/bin/ptxas --gpu-name=sm_20 -v _ptx2_BFWw6G --output-file  /dev/null 2> _ptx_hFDKYZinfo"
GPGPU-Sim PTX: Kernel '_Z15BlackScholesGPUPfS_S_S_S_ffi' : regs=31, lmem=0, smem=0, cmem=128
GPGPU-Sim PTX: removing ptxinfo using "rm -f _ptx_hFDKYZ _ptx2_BFWw6G _ptx_hFDKYZinfo"
GPGPU-Sim PTX: loading globals with explicit initializers... 
GPGPU-Sim PTX: finished loading globals (0 bytes total).
GPGPU-Sim PTX: loading constants with explicit initializers...  done.
Initializing data...
...allocating CPU memory for options.
...allocating GPU memory for options.
...generating input data in CPU mem.
...copying input data to GPU mem.
Data init done.
Executing Black-Scholes GPU kernel (1 iterations)...
GPGPU-Sim: synchronize waiting for inactive GPU simulation
GPGPU-Sim API: Stream Manager State
GPGPU-Sim: detected inactive GPU simulation thread

GPGPU-Sim PTX: cudaLaunch for 0x0x4050ed (mode=performance simulation) on stream 0
GPGPU-Sim PTX: pushing kernel '_Z15BlackScholesGPUPfS_S_S_S_ffi' to stream 0, gridDim= (480,1,1) blockDim = (128,1,1) 
kernel '_Z15BlackScholesGPUPfS_S_S_S_ffi' transfer to GPU hardware scheduler
GPGPU-Sim uArch: Shader 1 bind to kernel 1 '_Z15BlackScholesGPUPfS_S_S_S_ffi'
GPGPU-Sim uArch: CTA/core = 8, limited by: regs cta_limit
GPGPU-Sim uArch: core:  1, cta: 0 initialized @(1,0)
GPGPU-Sim uArch: Shader 2 bind to kernel 1 '_Z15BlackScholesGPUPfS_S_S_S_ffi'
GPGPU-Sim uArch: core:  2, cta: 0 initialized @(1,0)
GPGPU-Sim uArch: Shader 3 bind to kernel 1 '_Z15BlackScholesGPUPfS_S_S_S_ffi'
GPGPU-Sim uArch: core:  3, cta: 0 initialized @(1,0)
GPGPU-Sim uArch: Shader 4 bind to kernel 1 '_Z15BlackScholesGPUPfS_S_S_S_ffi'
GPGPU-Sim uArch: core:  4, cta: 0 initialized @(1,0)
GPGPU-Sim uArch: Shader 5 bind to kernel 1 '_Z15BlackScholesGPUPfS_S_S_S_ffi'
GPGPU-Sim uArch: core:  5, cta: 0 initialized @(1,0)
GPGPU-Sim uArch: Shader 6 bind to kernel 1 '_Z15BlackScholesGPUPfS_S_S_S_ffi'
GPGPU-Sim uArch: core:  6, cta: 0 initialized @(1,0)
GPGPU-Sim uArch: Shader 7 bind to kernel 1 '_Z15BlackScholesGPUPfS_S_S_S_ffi'
GPGPU-Sim uArch: core:  7, cta: 0 initialized @(1,0)
GPGPU-Sim uArch: Shader 8 bind to kernel 1 '_Z15BlackScholesGPUPfS_S_S_S_ffi'
GPGPU-Sim uArch: core:  8, cta: 0 initialized @(1,0)
GPGPU-Sim uArch: Shader 9 bind to kernel 1 '_Z15BlackScholesGPUPfS_S_S_S_ffi'
GPGPU-Sim uArch: core:  9, cta: 0 initialized @(1,0)
GPGPU-Sim uArch: Shader 10 bind to kernel 1 '_Z15BlackScholesGPUPfS_S_S_S_ffi'
GPGPU-Sim uArch: core: 10, cta: 0 initialized @(1,0)
GPGPU-Sim uArch: Shader 11 bind to kernel 1 '_Z15BlackScholesGPUPfS_S_S_S_ffi'
GPGPU-Sim uArch: core: 11, cta: 0 initialized @(1,0)
GPGPU-Sim uArch: Shader 12 bind to kernel 1 '_Z15BlackScholesGPUPfS_S_S_S_ffi'
GPGPU-Sim uArch: core: 12, cta: 0 initialized @(1,0)
GPGPU-Sim uArch: Shader 13 bind to kernel 1 '_Z15BlackScholesGPUPfS_S_S_S_ffi'
GPGPU-Sim uArch: core: 13, cta: 0 initialized @(1,0)
GPGPU-Sim uArch: Shader 14 bind to kernel 1 '_Z15BlackScholesGPUPfS_S_S_S_ffi'
GPGPU-Sim uArch: core: 14, cta: 0 initialized @(1,0)
GPGPU-Sim uArch: Shader 0 bind to kernel 1 '_Z15BlackScholesGPUPfS_S_S_S_ffi'
GPGPU-Sim uArch: core:  0, cta: 0 initialized @(1,0)
GPGPU-Sim uArch: core:  1, cta: 1 initialized @(2,0)
GPGPU-Sim uArch: core:  2, cta: 1 initialized @(2,0)
GPGPU-Sim uArch: core:  3, cta: 1 initialized @(2,0)
GPGPU-Sim uArch: core:  4, cta: 1 initialized @(2,0)
GPGPU-Sim uArch: core:  5, cta: 1 initialized @(2,0)
GPGPU-Sim uArch: core:  6, cta: 1 initialized @(2,0)
GPGPU-Sim uArch: core:  7, cta: 1 initialized @(2,0)
GPGPU-Sim uArch: core:  8, cta: 1 initialized @(2,0)
GPGPU-Sim uArch: core:  9, cta: 1 initialized @(2,0)
GPGPU-Sim uArch: core: 10, cta: 1 initialized @(2,0)
GPGPU-Sim uArch: core: 11, cta: 1 initialized @(2,0)
GPGPU-Sim uArch: core: 12, cta: 1 initialized @(2,0)
GPGPU-Sim uArch: core: 13, cta: 1 initialized @(2,0)
GPGPU-Sim uArch: core: 14, cta: 1 initialized @(2,0)
GPGPU-Sim uArch: core:  0, cta: 1 initialized @(2,0)
GPGPU-Sim uArch: core:  1, cta: 2 initialized @(3,0)
GPGPU-Sim uArch: core:  2, cta: 2 initialized @(3,0)
GPGPU-Sim uArch: core:  3, cta: 2 initialized @(3,0)
GPGPU-Sim uArch: core:  4, cta: 2 initialized @(3,0)
GPGPU-Sim uArch: core:  5, cta: 2 initialized @(3,0)
GPGPU-Sim uArch: core:  6, cta: 2 initialized @(3,0)
GPGPU-Sim uArch: core:  7, cta: 2 initialized @(3,0)
GPGPU-Sim uArch: core:  8, cta: 2 initialized @(3,0)
GPGPU-Sim uArch: core:  9, cta: 2 initialized @(3,0)
GPGPU-Sim uArch: core: 10, cta: 2 initialized @(3,0)
GPGPU-Sim uArch: core: 11, cta: 2 initialized @(3,0)
GPGPU-Sim uArch: core: 12, cta: 2 initialized @(3,0)
GPGPU-Sim uArch: core: 13, cta: 2 initialized @(3,0)
GPGPU-Sim uArch: core: 14, cta: 2 initialized @(3,0)
GPGPU-Sim uArch: core:  0, cta: 2 initialized @(3,0)
GPGPU-Sim uArch: core:  1, cta: 3 initialized @(4,0)
GPGPU-Sim uArch: core:  2, cta: 3 initialized @(4,0)
GPGPU-Sim uArch: core:  3, cta: 3 initialized @(4,0)
GPGPU-Sim uArch: core:  4, cta: 3 initialized @(4,0)
GPGPU-Sim uArch: core:  5, cta: 3 initialized @(4,0)
GPGPU-Sim uArch: core:  6, cta: 3 initialized @(4,0)
GPGPU-Sim uArch: core:  7, cta: 3 initialized @(4,0)
GPGPU-Sim uArch: core:  8, cta: 3 initialized @(4,0)
GPGPU-Sim uArch: core:  9, cta: 3 initialized @(4,0)
GPGPU-Sim uArch: core: 10, cta: 3 initialized @(4,0)
GPGPU-Sim uArch: core: 11, cta: 3 initialized @(4,0)
GPGPU-Sim uArch: core: 12, cta: 3 initialized @(4,0)
GPGPU-Sim uArch: core: 13, cta: 3 initialized @(4,0)
GPGPU-Sim uArch: core: 14, cta: 3 initialized @(4,0)
GPGPU-Sim uArch: core:  0, cta: 3 initialized @(4,0)
GPGPU-Sim uArch: core:  1, cta: 4 initialized @(5,0)
GPGPU-Sim uArch: core:  2, cta: 4 initialized @(5,0)
GPGPU-Sim uArch: core:  3, cta: 4 initialized @(5,0)
GPGPU-Sim uArch: core:  4, cta: 4 initialized @(5,0)
GPGPU-Sim uArch: core:  5, cta: 4 initialized @(5,0)
GPGPU-Sim uArch: core:  6, cta: 4 initialized @(5,0)
GPGPU-Sim uArch: core:  7, cta: 4 initialized @(5,0)
GPGPU-Sim uArch: core:  8, cta: 4 initialized @(5,0)
GPGPU-Sim uArch: core:  9, cta: 4 initialized @(5,0)
GPGPU-Sim uArch: core: 10, cta: 4 initialized @(5,0)
GPGPU-Sim uArch: core: 11, cta: 4 initialized @(5,0)
GPGPU-Sim uArch: core: 12, cta: 4 initialized @(5,0)
GPGPU-Sim uArch: core: 13, cta: 4 initialized @(5,0)
GPGPU-Sim uArch: core: 14, cta: 4 initialized @(5,0)
GPGPU-Sim uArch: core:  0, cta: 4 initialized @(5,0)
GPGPU-Sim uArch: core:  1, cta: 5 initialized @(6,0)
GPGPU-Sim uArch: core:  2, cta: 5 initialized @(6,0)
GPGPU-Sim uArch: core:  3, cta: 5 initialized @(6,0)
GPGPU-Sim uArch: core:  4, cta: 5 initialized @(6,0)
GPGPU-Sim uArch: core:  5, cta: 5 initialized @(6,0)
GPGPU-Sim uArch: core:  6, cta: 5 initialized @(6,0)
GPGPU-Sim uArch: core:  7, cta: 5 initialized @(6,0)
GPGPU-Sim uArch: core:  8, cta: 5 initialized @(6,0)
GPGPU-Sim uArch: core:  9, cta: 5 initialized @(6,0)
GPGPU-Sim uArch: core: 10, cta: 5 initialized @(6,0)
GPGPU-Sim uArch: core: 11, cta: 5 initialized @(6,0)
GPGPU-Sim uArch: core: 12, cta: 5 initialized @(6,0)
GPGPU-Sim uArch: core: 13, cta: 5 initialized @(6,0)
GPGPU-Sim uArch: core: 14, cta: 5 initialized @(6,0)
GPGPU-Sim uArch: core:  0, cta: 5 initialized @(6,0)
GPGPU-Sim uArch: core:  1, cta: 6 initialized @(7,0)
GPGPU-Sim uArch: core:  2, cta: 6 initialized @(7,0)
GPGPU-Sim uArch: core:  3, cta: 6 initialized @(7,0)
GPGPU-Sim uArch: core:  4, cta: 6 initialized @(7,0)
GPGPU-Sim uArch: core:  5, cta: 6 initialized @(7,0)
GPGPU-Sim uArch: core:  6, cta: 6 initialized @(7,0)
GPGPU-Sim uArch: core:  7, cta: 6 initialized @(7,0)
GPGPU-Sim uArch: core:  8, cta: 6 initialized @(7,0)
GPGPU-Sim uArch: core:  9, cta: 6 initialized @(7,0)
GPGPU-Sim uArch: core: 10, cta: 6 initialized @(7,0)
GPGPU-Sim uArch: core: 11, cta: 6 initialized @(7,0)
GPGPU-Sim uArch: core: 12, cta: 6 initialized @(7,0)
GPGPU-Sim uArch: core: 13, cta: 6 initialized @(7,0)
GPGPU-Sim uArch: core: 14, cta: 6 initialized @(7,0)
GPGPU-Sim uArch: core:  0, cta: 6 initialized @(7,0)
GPGPU-Sim uArch: core:  1, cta: 7 initialized @(8,0)
GPGPU-Sim uArch: core:  2, cta: 7 initialized @(8,0)
GPGPU-Sim uArch: core:  3, cta: 7 initialized @(8,0)
GPGPU-Sim uArch: core:  4, cta: 7 initialized @(8,0)
GPGPU-Sim uArch: core:  5, cta: 7 initialized @(8,0)
GPGPU-Sim uArch: core:  6, cta: 7 initialized @(8,0)
GPGPU-Sim uArch: core:  7, cta: 7 initialized @(8,0)
GPGPU-Sim uArch: core:  8, cta: 7 initialized @(8,0)
GPGPU-Sim uArch: core:  9, cta: 7 initialized @(8,0)
GPGPU-Sim uArch: core: 10, cta: 7 initialized @(8,0)
GPGPU-Sim uArch: core: 11, cta: 7 initialized @(8,0)
GPGPU-Sim uArch: core: 12, cta: 7 initialized @(8,0)
GPGPU-Sim uArch: core: 13, cta: 7 initialized @(8,0)
GPGPU-Sim uArch: core: 14, cta: 7 initialized @(8,0)
GPGPU-Sim uArch: core:  0, cta: 7 initialized @(8,0)
GPGPU-Sim PTX: 100000 instructions simulated : ctaid=(111,0,0) tid=(63,0,0)
GPGPU-Sim uArch: cycles simulated: 500  inst.: 92160 (ipc=184.3) sim_rate=46080 (inst/sec) elapsed = 0:0:00:02 / Tue Apr 16 16:51:49 2019
GPGPU-Sim PTX: 200000 instructions simulated : ctaid=(42,0,0) tid=(127,0,0)
GPGPU-Sim uArch: cycles simulated: 1000  inst.: 239456 (ipc=239.5) sim_rate=79818 (inst/sec) elapsed = 0:0:00:03 / Tue Apr 16 16:51:50 2019
GPGPU-Sim PTX: 300000 instructions simulated : ctaid=(52,0,0) tid=(95,0,0)
GPGPU-Sim PTX: 400000 instructions simulated : ctaid=(103,0,0) tid=(31,0,0)
GPGPU-Sim uArch: cycles simulated: 1500  inst.: 429344 (ipc=286.2) sim_rate=107336 (inst/sec) elapsed = 0:0:00:04 / Tue Apr 16 16:51:51 2019
GPGPU-Sim PTX: 500000 instructions simulated : ctaid=(104,0,0) tid=(127,0,0)
GPGPU-Sim uArch: cycles simulated: 2000  inst.: 475200 (ipc=237.6) sim_rate=95040 (inst/sec) elapsed = 0:0:00:05 / Tue Apr 16 16:51:52 2019
GPGPU-Sim PTX: 600000 instructions simulated : ctaid=(112,0,0) tid=(31,0,0)
GPGPU-Sim PTX: 700000 instructions simulated : ctaid=(105,0,0) tid=(95,0,0)
GPGPU-Sim PTX: 800000 instructions simulated : ctaid=(23,0,0) tid=(31,0,0)
GPGPU-Sim PTX: 900000 instructions simulated : ctaid=(65,0,0) tid=(127,0,0)
GPGPU-Sim uArch: cycles simulated: 3000  inst.: 941728 (ipc=313.9) sim_rate=156954 (inst/sec) elapsed = 0:0:00:06 / Tue Apr 16 16:51:53 2019
GPGPU-Sim PTX: 1000000 instructions simulated : ctaid=(13,0,0) tid=(127,0,0)
GPGPU-Sim PTX: 1100000 instructions simulated : ctaid=(22,0,0) tid=(127,0,0)
GPGPU-Sim PTX: 1200000 instructions simulated : ctaid=(27,0,0) tid=(95,0,0)
GPGPU-Sim uArch: cycles simulated: 3500  inst.: 1225216 (ipc=350.1) sim_rate=153152 (inst/sec) elapsed = 0:0:00:08 / Tue Apr 16 16:51:55 2019
GPGPU-Sim PTX: 1300000 instructions simulated : ctaid=(41,0,0) tid=(63,0,0)
GPGPU-Sim PTX: 1400000 instructions simulated : ctaid=(107,0,0) tid=(95,0,0)
GPGPU-Sim PTX: 1500000 instructions simulated : ctaid=(40,0,0) tid=(63,0,0)
GPGPU-Sim PTX: 1600000 instructions simulated : ctaid=(32,0,0) tid=(95,0,0)
GPGPU-Sim uArch: cycles simulated: 4000  inst.: 1623040 (ipc=405.8) sim_rate=180337 (inst/sec) elapsed = 0:0:00:09 / Tue Apr 16 16:51:56 2019
GPGPU-Sim PTX: 1700000 instructions simulated : ctaid=(96,0,0) tid=(95,0,0)
GPGPU-Sim PTX: 1800000 instructions simulated : ctaid=(101,0,0) tid=(63,0,0)
GPGPU-Sim uArch: cycles simulated: 4500  inst.: 1820928 (ipc=404.7) sim_rate=182092 (inst/sec) elapsed = 0:0:00:10 / Tue Apr 16 16:51:57 2019
GPGPU-Sim PTX: 1900000 instructions simulated : ctaid=(3,0,0) tid=(127,0,0)
GPGPU-Sim uArch: cycles simulated: 5000  inst.: 1885792 (ipc=377.2) sim_rate=171435 (inst/sec) elapsed = 0:0:00:11 / Tue Apr 16 16:51:58 2019
GPGPU-Sim PTX: 2000000 instructions simulated : ctaid=(113,0,0) tid=(63,0,0)
GPGPU-Sim PTX: 2100000 instructions simulated : ctaid=(23,0,0) tid=(31,0,0)
GPGPU-Sim PTX: 2200000 instructions simulated : ctaid=(53,0,0) tid=(95,0,0)
GPGPU-Sim uArch: cycles simulated: 5500  inst.: 2199584 (ipc=399.9) sim_rate=183298 (inst/sec) elapsed = 0:0:00:12 / Tue Apr 16 16:51:59 2019
GPGPU-Sim PTX: 2300000 instructions simulated : ctaid=(42,0,0) tid=(95,0,0)
GPGPU-Sim PTX: 2400000 instructions simulated : ctaid=(83,0,0) tid=(31,0,0)
GPGPU-Sim PTX: 2500000 instructions simulated : ctaid=(20,0,0) tid=(63,0,0)
GPGPU-Sim uArch: cycles simulated: 6000  inst.: 2547040 (ipc=424.5) sim_rate=181931 (inst/sec) elapsed = 0:0:00:14 / Tue Apr 16 16:52:01 2019
GPGPU-Sim PTX: 2600000 instructions simulated : ctaid=(30,0,0) tid=(127,0,0)
GPGPU-Sim PTX: 2700000 instructions simulated : ctaid=(119,0,0) tid=(31,0,0)
GPGPU-Sim PTX: 2800000 instructions simulated : ctaid=(36,0,0) tid=(127,0,0)
GPGPU-Sim PTX: 2900000 instructions simulated : ctaid=(100,0,0) tid=(95,0,0)
GPGPU-Sim uArch: cycles simulated: 6500  inst.: 2874752 (ipc=442.3) sim_rate=191650 (inst/sec) elapsed = 0:0:00:15 / Tue Apr 16 16:52:02 2019
GPGPU-Sim PTX: 3000000 instructions simulated : ctaid=(28,0,0) tid=(31,0,0)
GPGPU-Sim PTX: 3100000 instructions simulated : ctaid=(75,0,0) tid=(127,0,0)
GPGPU-Sim PTX: 3200000 instructions simulated : ctaid=(10,0,0) tid=(127,0,0)
GPGPU-Sim uArch: cycles simulated: 7000  inst.: 3177152 (ipc=453.9) sim_rate=186891 (inst/sec) elapsed = 0:0:00:17 / Tue Apr 16 16:52:04 2019
GPGPU-Sim PTX: 3300000 instructions simulated : ctaid=(30,0,0) tid=(31,0,0)
GPGPU-Sim PTX: 3400000 instructions simulated : ctaid=(44,0,0) tid=(95,0,0)
GPGPU-Sim uArch: cycles simulated: 7500  inst.: 3454976 (ipc=460.7) sim_rate=191943 (inst/sec) elapsed = 0:0:00:18 / Tue Apr 16 16:52:05 2019
GPGPU-Sim PTX: 3500000 instructions simulated : ctaid=(18,0,0) tid=(95,0,0)
GPGPU-Sim PTX: 3600000 instructions simulated : ctaid=(39,0,0) tid=(95,0,0)
GPGPU-Sim PTX: 3700000 instructions simulated : ctaid=(62,0,0) tid=(31,0,0)
GPGPU-Sim uArch: cycles simulated: 8000  inst.: 3740448 (ipc=467.6) sim_rate=187022 (inst/sec) elapsed = 0:0:00:20 / Tue Apr 16 16:52:07 2019
GPGPU-Sim PTX: 3800000 instructions simulated : ctaid=(10,0,0) tid=(95,0,0)
GPGPU-Sim PTX: 3900000 instructions simulated : ctaid=(44,0,0) tid=(63,0,0)
GPGPU-Sim PTX: 4000000 instructions simulated : ctaid=(99,0,0) tid=(31,0,0)
GPGPU-Sim uArch: cycles simulated: 8500  inst.: 3981440 (ipc=468.4) sim_rate=189592 (inst/sec) elapsed = 0:0:00:21 / Tue Apr 16 16:52:08 2019
GPGPU-Sim PTX: 4100000 instructions simulated : ctaid=(84,0,0) tid=(127,0,0)
GPGPU-Sim PTX: 4200000 instructions simulated : ctaid=(8,0,0) tid=(63,0,0)
GPGPU-Sim PTX: 4300000 instructions simulated : ctaid=(1,0,0) tid=(95,0,0)
GPGPU-Sim uArch: cycles simulated: 9000  inst.: 4285376 (ipc=476.2) sim_rate=194789 (inst/sec) elapsed = 0:0:00:22 / Tue Apr 16 16:52:09 2019
GPGPU-Sim PTX: 4400000 instructions simulated : ctaid=(26,0,0) tid=(95,0,0)
GPGPU-Sim PTX: 4500000 instructions simulated : ctaid=(14,0,0) tid=(63,0,0)
GPGPU-Sim PTX: 4600000 instructions simulated : ctaid=(30,0,0) tid=(95,0,0)
GPGPU-Sim uArch: cycles simulated: 9500  inst.: 4562880 (ipc=480.3) sim_rate=190120 (inst/sec) elapsed = 0:0:00:24 / Tue Apr 16 16:52:11 2019
GPGPU-Sim PTX: 4700000 instructions simulated : ctaid=(59,0,0) tid=(95,0,0)
GPGPU-Sim PTX: 4800000 instructions simulated : ctaid=(92,0,0) tid=(31,0,0)
GPGPU-Sim uArch: cycles simulated: 10000  inst.: 4849376 (ipc=484.9) sim_rate=193975 (inst/sec) elapsed = 0:0:00:25 / Tue Apr 16 16:52:12 2019
GPGPU-Sim PTX: 4900000 instructions simulated : ctaid=(78,0,0) tid=(95,0,0)
GPGPU-Sim PTX: 5000000 instructions simulated : ctaid=(81,0,0) tid=(127,0,0)
GPGPU-Sim PTX: 5100000 instructions simulated : ctaid=(55,0,0) tid=(95,0,0)
GPGPU-Sim uArch: cycles simulated: 10500  inst.: 5144192 (ipc=489.9) sim_rate=197853 (inst/sec) elapsed = 0:0:00:26 / Tue Apr 16 16:52:13 2019
GPGPU-Sim PTX: 5200000 instructions simulated : ctaid=(53,0,0) tid=(63,0,0)
GPGPU-Sim PTX: 5300000 instructions simulated : ctaid=(75,0,0) tid=(31,0,0)
GPGPU-Sim PTX: 5400000 instructions simulated : ctaid=(7,0,0) tid=(31,0,0)
GPGPU-Sim uArch: cycles simulated: 11000  inst.: 5440256 (ipc=494.6) sim_rate=194294 (inst/sec) elapsed = 0:0:00:28 / Tue Apr 16 16:52:15 2019
GPGPU-Sim PTX: 5500000 instructions simulated : ctaid=(29,0,0) tid=(63,0,0)
GPGPU-Sim PTX: 5600000 instructions simulated : ctaid=(2,0,0) tid=(95,0,0)
GPGPU-Sim PTX: 5700000 instructions simulated : ctaid=(1,0,0) tid=(63,0,0)
GPGPU-Sim uArch: cycles simulated: 11500  inst.: 5715936 (ipc=497.0) sim_rate=197101 (inst/sec) elapsed = 0:0:00:29 / Tue Apr 16 16:52:16 2019
GPGPU-Sim PTX: 5800000 instructions simulated : ctaid=(92,0,0) tid=(95,0,0)
GPGPU-Sim PTX: 5900000 instructions simulated : ctaid=(41,0,0) tid=(95,0,0)
GPGPU-Sim PTX: 6000000 instructions simulated : ctaid=(20,0,0) tid=(63,0,0)
GPGPU-Sim uArch: cycles simulated: 12000  inst.: 6002592 (ipc=500.2) sim_rate=200086 (inst/sec) elapsed = 0:0:00:30 / Tue Apr 16 16:52:17 2019
GPGPU-Sim PTX: 6100000 instructions simulated : ctaid=(55,0,0) tid=(63,0,0)
GPGPU-Sim PTX: 6200000 instructions simulated : ctaid=(19,0,0) tid=(95,0,0)
GPGPU-Sim PTX: 6300000 instructions simulated : ctaid=(32,0,0) tid=(127,0,0)
GPGPU-Sim uArch: cycles simulated: 12500  inst.: 6304736 (ipc=504.4) sim_rate=197023 (inst/sec) elapsed = 0:0:00:32 / Tue Apr 16 16:52:19 2019
GPGPU-Sim PTX: 6400000 instructions simulated : ctaid=(67,0,0) tid=(95,0,0)
GPGPU-Sim PTX: 6500000 instructions simulated : ctaid=(46,0,0) tid=(63,0,0)
GPGPU-Sim PTX: 6600000 instructions simulated : ctaid=(2,0,0) tid=(127,0,0)
GPGPU-Sim uArch: cycles simulated: 13000  inst.: 6606848 (ipc=508.2) sim_rate=200207 (inst/sec) elapsed = 0:0:00:33 / Tue Apr 16 16:52:20 2019
GPGPU-Sim PTX: 6700000 instructions simulated : ctaid=(8,0,0) tid=(63,0,0)
GPGPU-Sim PTX: 6800000 instructions simulated : ctaid=(60,0,0) tid=(31,0,0)
GPGPU-Sim PTX: 6900000 instructions simulated : ctaid=(10,0,0) tid=(95,0,0)
GPGPU-Sim uArch: cycles simulated: 13500  inst.: 6917376 (ipc=512.4) sim_rate=197639 (inst/sec) elapsed = 0:0:00:35 / Tue Apr 16 16:52:22 2019
GPGPU-Sim PTX: 7000000 instructions simulated : ctaid=(106,0,0) tid=(63,0,0)
GPGPU-Sim PTX: 7100000 instructions simulated : ctaid=(38,0,0) tid=(31,0,0)
GPGPU-Sim PTX: 7200000 instructions simulated : ctaid=(96,0,0) tid=(31,0,0)
GPGPU-Sim uArch: cycles simulated: 14000  inst.: 7227200 (ipc=516.2) sim_rate=200755 (inst/sec) elapsed = 0:0:00:36 / Tue Apr 16 16:52:23 2019
GPGPU-Sim PTX: 7300000 instructions simulated : ctaid=(20,0,0) tid=(95,0,0)
GPGPU-Sim PTX: 7400000 instructions simulated : ctaid=(55,0,0) tid=(127,0,0)
GPGPU-Sim PTX: 7500000 instructions simulated : ctaid=(83,0,0) tid=(127,0,0)
GPGPU-Sim uArch: cycles simulated: 14500  inst.: 7539328 (ipc=520.0) sim_rate=198403 (inst/sec) elapsed = 0:0:00:38 / Tue Apr 16 16:52:25 2019
GPGPU-Sim PTX: 7600000 instructions simulated : ctaid=(28,0,0) tid=(127,0,0)
GPGPU-Sim PTX: 7700000 instructions simulated : ctaid=(85,0,0) tid=(31,0,0)
GPGPU-Sim PTX: 7800000 instructions simulated : ctaid=(47,0,0) tid=(127,0,0)
GPGPU-Sim uArch: cycles simulated: 15000  inst.: 7840896 (ipc=522.7) sim_rate=196022 (inst/sec) elapsed = 0:0:00:40 / Tue Apr 16 16:52:27 2019
GPGPU-Sim PTX: 7900000 instructions simulated : ctaid=(110,0,0) tid=(127,0,0)
GPGPU-Sim PTX: 8000000 instructions simulated : ctaid=(28,0,0) tid=(95,0,0)
GPGPU-Sim PTX: 8100000 instructions simulated : ctaid=(87,0,0) tid=(63,0,0)
GPGPU-Sim uArch: cycles simulated: 15500  inst.: 8147808 (ipc=525.7) sim_rate=193995 (inst/sec) elapsed = 0:0:00:42 / Tue Apr 16 16:52:29 2019
GPGPU-Sim PTX: 8200000 instructions simulated : ctaid=(10,0,0) tid=(31,0,0)
GPGPU-Sim PTX: 8300000 instructions simulated : ctaid=(9,0,0) tid=(63,0,0)
GPGPU-Sim PTX: 8400000 instructions simulated : ctaid=(93,0,0) tid=(63,0,0)
GPGPU-Sim uArch: cycles simulated: 16000  inst.: 8460512 (ipc=528.8) sim_rate=196756 (inst/sec) elapsed = 0:0:00:43 / Tue Apr 16 16:52:30 2019
GPGPU-Sim PTX: 8500000 instructions simulated : ctaid=(34,0,0) tid=(127,0,0)
GPGPU-Sim PTX: 8600000 instructions simulated : ctaid=(46,0,0) tid=(95,0,0)
GPGPU-Sim PTX: 8700000 instructions simulated : ctaid=(11,0,0) tid=(63,0,0)
GPGPU-Sim uArch: cycles simulated: 16500  inst.: 8758368 (ipc=530.8) sim_rate=199053 (inst/sec) elapsed = 0:0:00:44 / Tue Apr 16 16:52:31 2019
GPGPU-Sim PTX: 8800000 instructions simulated : ctaid=(70,0,0) tid=(127,0,0)
GPGPU-Sim PTX: 8900000 instructions simulated : ctaid=(78,0,0) tid=(63,0,0)
GPGPU-Sim PTX: 9000000 instructions simulated : ctaid=(76,0,0) tid=(95,0,0)
GPGPU-Sim PTX: 9100000 instructions simulated : ctaid=(23,0,0) tid=(63,0,0)
GPGPU-Sim uArch: cycles simulated: 17000  inst.: 9061632 (ipc=533.0) sim_rate=196992 (inst/sec) elapsed = 0:0:00:46 / Tue Apr 16 16:52:33 2019
GPGPU-Sim PTX: 9200000 instructions simulated : ctaid=(79,0,0) tid=(31,0,0)
GPGPU-Sim PTX: 9300000 instructions simulated : ctaid=(84,0,0) tid=(95,0,0)
GPGPU-Sim PTX: 9400000 instructions simulated : ctaid=(59,0,0) tid=(127,0,0)
GPGPU-Sim uArch: cycles simulated: 17500  inst.: 9372000 (ipc=535.5) sim_rate=199404 (inst/sec) elapsed = 0:0:00:47 / Tue Apr 16 16:52:34 2019
GPGPU-Sim PTX: 9500000 instructions simulated : ctaid=(45,0,0) tid=(95,0,0)
GPGPU-Sim PTX: 9600000 instructions simulated : ctaid=(15,0,0) tid=(31,0,0)
GPGPU-Sim PTX: 9700000 instructions simulated : ctaid=(61,0,0) tid=(95,0,0)
GPGPU-Sim uArch: cycles simulated: 18000  inst.: 9685440 (ipc=538.1) sim_rate=201780 (inst/sec) elapsed = 0:0:00:48 / Tue Apr 16 16:52:35 2019
GPGPU-Sim PTX: 9800000 instructions simulated : ctaid=(57,0,0) tid=(127,0,0)
GPGPU-Sim PTX: 9900000 instructions simulated : ctaid=(41,0,0) tid=(63,0,0)
GPGPU-Sim PTX: 10000000 instructions simulated : ctaid=(85,0,0) tid=(95,0,0)
GPGPU-Sim uArch: cycles simulated: 18500  inst.: 9981312 (ipc=539.5) sim_rate=203700 (inst/sec) elapsed = 0:0:00:49 / Tue Apr 16 16:52:36 2019
GPGPU-Sim PTX: 10100000 instructions simulated : ctaid=(48,0,0) tid=(95,0,0)
GPGPU-Sim PTX: 10200000 instructions simulated : ctaid=(77,0,0) tid=(63,0,0)
GPGPU-Sim PTX: 10300000 instructions simulated : ctaid=(27,0,0) tid=(31,0,0)
GPGPU-Sim uArch: cycles simulated: 19000  inst.: 10283168 (ipc=541.2) sim_rate=201630 (inst/sec) elapsed = 0:0:00:51 / Tue Apr 16 16:52:38 2019
GPGPU-Sim PTX: 10400000 instructions simulated : ctaid=(3,0,0) tid=(95,0,0)
GPGPU-Sim PTX: 10500000 instructions simulated : ctaid=(83,0,0) tid=(63,0,0)
GPGPU-Sim PTX: 10600000 instructions simulated : ctaid=(8,0,0) tid=(95,0,0)
GPGPU-Sim uArch: cycles simulated: 19500  inst.: 10571904 (ipc=542.1) sim_rate=203305 (inst/sec) elapsed = 0:0:00:52 / Tue Apr 16 16:52:39 2019
GPGPU-Sim PTX: 10700000 instructions simulated : ctaid=(65,0,0) tid=(31,0,0)
GPGPU-Sim PTX: 10800000 instructions simulated : ctaid=(97,0,0) tid=(127,0,0)
GPGPU-Sim PTX: 10900000 instructions simulated : ctaid=(58,0,0) tid=(63,0,0)
GPGPU-Sim uArch: cycles simulated: 20000  inst.: 10875232 (ipc=543.8) sim_rate=205193 (inst/sec) elapsed = 0:0:00:53 / Tue Apr 16 16:52:40 2019
GPGPU-Sim PTX: 11000000 instructions simulated : ctaid=(28,0,0) tid=(95,0,0)
GPGPU-Sim PTX: 11100000 instructions simulated : ctaid=(48,0,0) tid=(95,0,0)
GPGPU-Sim PTX: 11200000 instructions simulated : ctaid=(62,0,0) tid=(95,0,0)
GPGPU-Sim uArch: cycles simulated: 20500  inst.: 11174816 (ipc=545.1) sim_rate=203178 (inst/sec) elapsed = 0:0:00:55 / Tue Apr 16 16:52:42 2019
GPGPU-Sim PTX: 11300000 instructions simulated : ctaid=(26,0,0) tid=(31,0,0)
GPGPU-Sim PTX: 11400000 instructions simulated : ctaid=(85,0,0) tid=(95,0,0)
GPGPU-Sim uArch: cycles simulated: 21000  inst.: 11458784 (ipc=545.7) sim_rate=204621 (inst/sec) elapsed = 0:0:00:56 / Tue Apr 16 16:52:43 2019
GPGPU-Sim PTX: 11500000 instructions simulated : ctaid=(67,0,0) tid=(127,0,0)
GPGPU-Sim PTX: 11600000 instructions simulated : ctaid=(7,0,0) tid=(63,0,0)
GPGPU-Sim PTX: 11700000 instructions simulated : ctaid=(53,0,0) tid=(31,0,0)
GPGPU-Sim uArch: cycles simulated: 21500  inst.: 11740288 (ipc=546.1) sim_rate=205969 (inst/sec) elapsed = 0:0:00:57 / Tue Apr 16 16:52:44 2019
GPGPU-Sim PTX: 11800000 instructions simulated : ctaid=(51,0,0) tid=(127,0,0)
GPGPU-Sim PTX: 11900000 instructions simulated : ctaid=(44,0,0) tid=(31,0,0)
GPGPU-Sim PTX: 12000000 instructions simulated : ctaid=(42,0,0) tid=(127,0,0)
GPGPU-Sim uArch: cycles simulated: 22000  inst.: 12026848 (ipc=546.7) sim_rate=203844 (inst/sec) elapsed = 0:0:00:59 / Tue Apr 16 16:52:46 2019
GPGPU-Sim PTX: 12100000 instructions simulated : ctaid=(82,0,0) tid=(31,0,0)
GPGPU-Sim PTX: 12200000 instructions simulated : ctaid=(16,0,0) tid=(95,0,0)
GPGPU-Sim PTX: 12300000 instructions simulated : ctaid=(12,0,0) tid=(95,0,0)
GPGPU-Sim uArch: cycles simulated: 22500  inst.: 12325888 (ipc=547.8) sim_rate=205431 (inst/sec) elapsed = 0:0:01:00 / Tue Apr 16 16:52:47 2019
GPGPU-Sim PTX: 12400000 instructions simulated : ctaid=(71,0,0) tid=(63,0,0)
GPGPU-Sim PTX: 12500000 instructions simulated : ctaid=(39,0,0) tid=(63,0,0)
GPGPU-Sim PTX: 12600000 instructions simulated : ctaid=(64,0,0) tid=(63,0,0)
GPGPU-Sim uArch: cycles simulated: 23000  inst.: 12622400 (ipc=548.8) sim_rate=206924 (inst/sec) elapsed = 0:0:01:01 / Tue Apr 16 16:52:48 2019
GPGPU-Sim PTX: 12700000 instructions simulated : ctaid=(47,0,0) tid=(31,0,0)
GPGPU-Sim PTX: 12800000 instructions simulated : ctaid=(69,0,0) tid=(127,0,0)
GPGPU-Sim PTX: 12900000 instructions simulated : ctaid=(26,0,0) tid=(95,0,0)
GPGPU-Sim uArch: cycles simulated: 23500  inst.: 12923616 (ipc=549.9) sim_rate=205136 (inst/sec) elapsed = 0:0:01:03 / Tue Apr 16 16:52:50 2019
GPGPU-Sim PTX: 13000000 instructions simulated : ctaid=(69,0,0) tid=(95,0,0)
GPGPU-Sim PTX: 13100000 instructions simulated : ctaid=(13,0,0) tid=(95,0,0)
GPGPU-Sim PTX: 13200000 instructions simulated : ctaid=(83,0,0) tid=(127,0,0)
GPGPU-Sim uArch: cycles simulated: 24000  inst.: 13220992 (ipc=550.9) sim_rate=206578 (inst/sec) elapsed = 0:0:01:04 / Tue Apr 16 16:52:51 2019
GPGPU-Sim PTX: 13300000 instructions simulated : ctaid=(20,0,0) tid=(63,0,0)
GPGPU-Sim PTX: 13400000 instructions simulated : ctaid=(2,0,0) tid=(31,0,0)
GPGPU-Sim PTX: 13500000 instructions simulated : ctaid=(58,0,0) tid=(31,0,0)
GPGPU-Sim uArch: cycles simulated: 24500  inst.: 13518848 (ipc=551.8) sim_rate=207982 (inst/sec) elapsed = 0:0:01:05 / Tue Apr 16 16:52:52 2019
GPGPU-Sim PTX: 13600000 instructions simulated : ctaid=(34,0,0) tid=(63,0,0)
GPGPU-Sim PTX: 13700000 instructions simulated : ctaid=(108,0,0) tid=(31,0,0)
GPGPU-Sim PTX: 13800000 instructions simulated : ctaid=(29,0,0) tid=(95,0,0)
GPGPU-Sim uArch: cycles simulated: 25000  inst.: 13808928 (ipc=552.4) sim_rate=206103 (inst/sec) elapsed = 0:0:01:07 / Tue Apr 16 16:52:54 2019
GPGPU-Sim PTX: 13900000 instructions simulated : ctaid=(19,0,0) tid=(63,0,0)
GPGPU-Sim PTX: 14000000 instructions simulated : ctaid=(92,0,0) tid=(31,0,0)
GPGPU-Sim PTX: 14100000 instructions simulated : ctaid=(55,0,0) tid=(31,0,0)
GPGPU-Sim uArch: cycles simulated: 25500  inst.: 14120096 (ipc=553.7) sim_rate=207648 (inst/sec) elapsed = 0:0:01:08 / Tue Apr 16 16:52:55 2019
GPGPU-Sim PTX: 14200000 instructions simulated : ctaid=(95,0,0) tid=(63,0,0)
GPGPU-Sim PTX: 14300000 instructions simulated : ctaid=(72,0,0) tid=(63,0,0)
GPGPU-Sim PTX: 14400000 instructions simulated : ctaid=(4,0,0) tid=(127,0,0)
GPGPU-Sim uArch: cycles simulated: 26000  inst.: 14419456 (ipc=554.6) sim_rate=208977 (inst/sec) elapsed = 0:0:01:09 / Tue Apr 16 16:52:56 2019
GPGPU-Sim PTX: 14500000 instructions simulated : ctaid=(98,0,0) tid=(127,0,0)
GPGPU-Sim PTX: 14600000 instructions simulated : ctaid=(24,0,0) tid=(127,0,0)
GPGPU-Sim PTX: 14700000 instructions simulated : ctaid=(85,0,0) tid=(31,0,0)
GPGPU-Sim uArch: cycles simulated: 26500  inst.: 14712192 (ipc=555.2) sim_rate=210174 (inst/sec) elapsed = 0:0:01:10 / Tue Apr 16 16:52:57 2019
GPGPU-Sim PTX: 14800000 instructions simulated : ctaid=(38,0,0) tid=(95,0,0)
GPGPU-Sim PTX: 14900000 instructions simulated : ctaid=(1,0,0) tid=(95,0,0)
GPGPU-Sim PTX: 15000000 instructions simulated : ctaid=(83,0,0) tid=(31,0,0)
GPGPU-Sim uArch: cycles simulated: 27000  inst.: 15015552 (ipc=556.1) sim_rate=208549 (inst/sec) elapsed = 0:0:01:12 / Tue Apr 16 16:52:59 2019
GPGPU-Sim PTX: 15100000 instructions simulated : ctaid=(59,0,0) tid=(95,0,0)
GPGPU-Sim PTX: 15200000 instructions simulated : ctaid=(72,0,0) tid=(31,0,0)
GPGPU-Sim PTX: 15300000 instructions simulated : ctaid=(60,0,0) tid=(31,0,0)
GPGPU-Sim uArch: cycles simulated: 27500  inst.: 15322752 (ipc=557.2) sim_rate=209900 (inst/sec) elapsed = 0:0:01:13 / Tue Apr 16 16:53:00 2019
GPGPU-Sim PTX: 15400000 instructions simulated : ctaid=(22,0,0) tid=(63,0,0)
GPGPU-Sim PTX: 15500000 instructions simulated : ctaid=(21,0,0) tid=(63,0,0)
GPGPU-Sim PTX: 15600000 instructions simulated : ctaid=(93,0,0) tid=(31,0,0)
GPGPU-Sim uArch: cycles simulated: 28000  inst.: 15621824 (ipc=557.9) sim_rate=211105 (inst/sec) elapsed = 0:0:01:14 / Tue Apr 16 16:53:01 2019
GPGPU-Sim PTX: 15700000 instructions simulated : ctaid=(100,0,0) tid=(127,0,0)
GPGPU-Sim PTX: 15800000 instructions simulated : ctaid=(90,0,0) tid=(31,0,0)
GPGPU-Sim PTX: 15900000 instructions simulated : ctaid=(83,0,0) tid=(31,0,0)
GPGPU-Sim uArch: cycles simulated: 28500  inst.: 15911456 (ipc=558.3) sim_rate=212152 (inst/sec) elapsed = 0:0:01:15 / Tue Apr 16 16:53:02 2019
GPGPU-Sim PTX: 16000000 instructions simulated : ctaid=(117,0,0) tid=(95,0,0)
GPGPU-Sim PTX: 16100000 instructions simulated : ctaid=(60,0,0) tid=(127,0,0)
GPGPU-Sim PTX: 16200000 instructions simulated : ctaid=(19,0,0) tid=(127,0,0)
GPGPU-Sim uArch: cycles simulated: 29000  inst.: 16203008 (ipc=558.7) sim_rate=210428 (inst/sec) elapsed = 0:0:01:17 / Tue Apr 16 16:53:04 2019
GPGPU-Sim PTX: 16300000 instructions simulated : ctaid=(103,0,0) tid=(63,0,0)
GPGPU-Sim PTX: 16400000 instructions simulated : ctaid=(50,0,0) tid=(95,0,0)
GPGPU-Sim PTX: 16500000 instructions simulated : ctaid=(75,0,0) tid=(31,0,0)
GPGPU-Sim uArch: cycles simulated: 29500  inst.: 16492992 (ipc=559.1) sim_rate=211448 (inst/sec) elapsed = 0:0:01:18 / Tue Apr 16 16:53:05 2019
GPGPU-Sim PTX: 16600000 instructions simulated : ctaid=(98,0,0) tid=(63,0,0)
GPGPU-Sim PTX: 16700000 instructions simulated : ctaid=(8,0,0) tid=(63,0,0)
GPGPU-Sim PTX: 16800000 instructions simulated : ctaid=(54,0,0) tid=(31,0,0)
GPGPU-Sim uArch: cycles simulated: 30000  inst.: 16770752 (ipc=559.0) sim_rate=209634 (inst/sec) elapsed = 0:0:01:20 / Tue Apr 16 16:53:07 2019
GPGPU-Sim PTX: 16900000 instructions simulated : ctaid=(41,0,0) tid=(31,0,0)
GPGPU-Sim PTX: 17000000 instructions simulated : ctaid=(3,0,0) tid=(95,0,0)
GPGPU-Sim uArch: cycles simulated: 30500  inst.: 17052992 (ipc=559.1) sim_rate=210530 (inst/sec) elapsed = 0:0:01:21 / Tue Apr 16 16:53:08 2019
GPGPU-Sim PTX: 17100000 instructions simulated : ctaid=(20,0,0) tid=(63,0,0)
GPGPU-Sim PTX: 17200000 instructions simulated : ctaid=(23,0,0) tid=(95,0,0)
GPGPU-Sim PTX: 17300000 instructions simulated : ctaid=(18,0,0) tid=(31,0,0)
GPGPU-Sim uArch: cycles simulated: 31000  inst.: 17346336 (ipc=559.6) sim_rate=211540 (inst/sec) elapsed = 0:0:01:22 / Tue Apr 16 16:53:09 2019
GPGPU-Sim PTX: 17400000 instructions simulated : ctaid=(50,0,0) tid=(95,0,0)
GPGPU-Sim PTX: 17500000 instructions simulated : ctaid=(17,0,0) tid=(95,0,0)
GPGPU-Sim PTX: 17600000 instructions simulated : ctaid=(76,0,0) tid=(31,0,0)
GPGPU-Sim uArch: cycles simulated: 31500  inst.: 17644352 (ipc=560.1) sim_rate=210051 (inst/sec) elapsed = 0:0:01:24 / Tue Apr 16 16:53:11 2019
GPGPU-Sim PTX: 17700000 instructions simulated : ctaid=(72,0,0) tid=(31,0,0)
GPGPU-Sim PTX: 17800000 instructions simulated : ctaid=(29,0,0) tid=(31,0,0)
GPGPU-Sim PTX: 17900000 instructions simulated : ctaid=(73,0,0) tid=(63,0,0)
GPGPU-Sim uArch: cycles simulated: 32000  inst.: 17927200 (ipc=560.2) sim_rate=210908 (inst/sec) elapsed = 0:0:01:25 / Tue Apr 16 16:53:12 2019
GPGPU-Sim PTX: 18000000 instructions simulated : ctaid=(70,0,0) tid=(95,0,0)
GPGPU-Sim PTX: 18100000 instructions simulated : ctaid=(56,0,0) tid=(31,0,0)
GPGPU-Sim PTX: 18200000 instructions simulated : ctaid=(64,0,0) tid=(95,0,0)
GPGPU-Sim uArch: cycles simulated: 32500  inst.: 18229824 (ipc=560.9) sim_rate=211974 (inst/sec) elapsed = 0:0:01:26 / Tue Apr 16 16:53:13 2019
GPGPU-Sim PTX: 18300000 instructions simulated : ctaid=(0,0,0) tid=(63,0,0)
GPGPU-Sim PTX: 18400000 instructions simulated : ctaid=(52,0,0) tid=(31,0,0)
GPGPU-Sim PTX: 18500000 instructions simulated : ctaid=(17,0,0) tid=(31,0,0)
GPGPU-Sim uArch: cycles simulated: 33000  inst.: 18517568 (ipc=561.1) sim_rate=210426 (inst/sec) elapsed = 0:0:01:28 / Tue Apr 16 16:53:15 2019
GPGPU-Sim PTX: 18600000 instructions simulated : ctaid=(82,0,0) tid=(127,0,0)
GPGPU-Sim PTX: 18700000 instructions simulated : ctaid=(36,0,0) tid=(31,0,0)
GPGPU-Sim PTX: 18800000 instructions simulated : ctaid=(79,0,0) tid=(31,0,0)
GPGPU-Sim uArch: cycles simulated: 33500  inst.: 18824224 (ipc=561.9) sim_rate=211508 (inst/sec) elapsed = 0:0:01:29 / Tue Apr 16 16:53:16 2019
GPGPU-Sim PTX: 18900000 instructions simulated : ctaid=(68,0,0) tid=(63,0,0)
GPGPU-Sim PTX: 19000000 instructions simulated : ctaid=(77,0,0) tid=(63,0,0)
GPGPU-Sim PTX: 19100000 instructions simulated : ctaid=(72,0,0) tid=(127,0,0)
GPGPU-Sim uArch: cycles simulated: 34000  inst.: 19130304 (ipc=562.7) sim_rate=212558 (inst/sec) elapsed = 0:0:01:30 / Tue Apr 16 16:53:17 2019
GPGPU-Sim PTX: 19200000 instructions simulated : ctaid=(57,0,0) tid=(127,0,0)
GPGPU-Sim PTX: 19300000 instructions simulated : ctaid=(70,0,0) tid=(31,0,0)
GPGPU-Sim PTX: 19400000 instructions simulated : ctaid=(4,0,0) tid=(95,0,0)
GPGPU-Sim uArch: cycles simulated: 34500  inst.: 19428384 (ipc=563.1) sim_rate=211178 (inst/sec) elapsed = 0:0:01:32 / Tue Apr 16 16:53:19 2019
GPGPU-Sim PTX: 19500000 instructions simulated : ctaid=(31,0,0) tid=(127,0,0)
GPGPU-Sim PTX: 19600000 instructions simulated : ctaid=(18,0,0) tid=(127,0,0)
GPGPU-Sim PTX: 19700000 instructions simulated : ctaid=(5,0,0) tid=(127,0,0)
GPGPU-Sim uArch: cycles simulated: 35000  inst.: 19714816 (ipc=563.3) sim_rate=211987 (inst/sec) elapsed = 0:0:01:33 / Tue Apr 16 16:53:20 2019
GPGPU-Sim PTX: 19800000 instructions simulated : ctaid=(13,0,0) tid=(95,0,0)
GPGPU-Sim PTX: 19900000 instructions simulated : ctaid=(46,0,0) tid=(31,0,0)
GPGPU-Sim PTX: 20000000 instructions simulated : ctaid=(22,0,0) tid=(127,0,0)
GPGPU-Sim uArch: cycles simulated: 35500  inst.: 20004768 (ipc=563.5) sim_rate=212816 (inst/sec) elapsed = 0:0:01:34 / Tue Apr 16 16:53:21 2019
GPGPU-Sim PTX: 20100000 instructions simulated : ctaid=(115,0,0) tid=(63,0,0)
GPGPU-Sim PTX: 20200000 instructions simulated : ctaid=(2,0,0) tid=(63,0,0)
GPGPU-Sim PTX: 20300000 instructions simulated : ctaid=(70,0,0) tid=(95,0,0)
GPGPU-Sim uArch: cycles simulated: 36000  inst.: 20296608 (ipc=563.8) sim_rate=213648 (inst/sec) elapsed = 0:0:01:35 / Tue Apr 16 16:53:22 2019
GPGPU-Sim PTX: 20400000 instructions simulated : ctaid=(40,0,0) tid=(95,0,0)
GPGPU-Sim PTX: 20500000 instructions simulated : ctaid=(23,0,0) tid=(31,0,0)
GPGPU-Sim PTX: 20600000 instructions simulated : ctaid=(50,0,0) tid=(127,0,0)
GPGPU-Sim uArch: cycles simulated: 36500  inst.: 20590496 (ipc=564.1) sim_rate=212273 (inst/sec) elapsed = 0:0:01:37 / Tue Apr 16 16:53:24 2019
GPGPU-Sim PTX: 20700000 instructions simulated : ctaid=(79,0,0) tid=(95,0,0)
GPGPU-Sim PTX: 20800000 instructions simulated : ctaid=(49,0,0) tid=(95,0,0)
GPGPU-Sim PTX: 20900000 instructions simulated : ctaid=(34,0,0) tid=(95,0,0)
GPGPU-Sim uArch: cycles simulated: 37000  inst.: 20874912 (ipc=564.2) sim_rate=213009 (inst/sec) elapsed = 0:0:01:38 / Tue Apr 16 16:53:25 2019
GPGPU-Sim PTX: 21000000 instructions simulated : ctaid=(56,0,0) tid=(31,0,0)
GPGPU-Sim PTX: 21100000 instructions simulated : ctaid=(83,0,0) tid=(95,0,0)
GPGPU-Sim PTX: 21200000 instructions simulated : ctaid=(12,0,0) tid=(127,0,0)
GPGPU-Sim uArch: cycles simulated: 37500  inst.: 21181152 (ipc=564.8) sim_rate=211811 (inst/sec) elapsed = 0:0:01:40 / Tue Apr 16 16:53:27 2019
GPGPU-Sim PTX: 21300000 instructions simulated : ctaid=(52,0,0) tid=(63,0,0)
GPGPU-Sim PTX: 21400000 instructions simulated : ctaid=(11,0,0) tid=(63,0,0)
GPGPU-Sim PTX: 21500000 instructions simulated : ctaid=(7,0,0) tid=(127,0,0)
GPGPU-Sim uArch: cycles simulated: 38000  inst.: 21470080 (ipc=565.0) sim_rate=212575 (inst/sec) elapsed = 0:0:01:41 / Tue Apr 16 16:53:28 2019
GPGPU-Sim PTX: 21600000 instructions simulated : ctaid=(54,0,0) tid=(31,0,0)
GPGPU-Sim PTX: 21700000 instructions simulated : ctaid=(46,0,0) tid=(63,0,0)
GPGPU-Sim PTX: 21800000 instructions simulated : ctaid=(6,0,0) tid=(31,0,0)
GPGPU-Sim uArch: cycles simulated: 38500  inst.: 21768128 (ipc=565.4) sim_rate=213413 (inst/sec) elapsed = 0:0:01:42 / Tue Apr 16 16:53:29 2019
GPGPU-Sim PTX: 21900000 instructions simulated : ctaid=(100,0,0) tid=(95,0,0)
GPGPU-Sim PTX: 22000000 instructions simulated : ctaid=(94,0,0) tid=(127,0,0)
GPGPU-Sim uArch: cycles simulated: 39000  inst.: 22059488 (ipc=565.6) sim_rate=212110 (inst/sec) elapsed = 0:0:01:44 / Tue Apr 16 16:53:31 2019
GPGPU-Sim PTX: 22100000 instructions simulated : ctaid=(95,0,0) tid=(95,0,0)
GPGPU-Sim PTX: 22200000 instructions simulated : ctaid=(52,0,0) tid=(63,0,0)
GPGPU-Sim PTX: 22300000 instructions simulated : ctaid=(69,0,0) tid=(63,0,0)
GPGPU-Sim uArch: cycles simulated: 39500  inst.: 22347744 (ipc=565.8) sim_rate=212835 (inst/sec) elapsed = 0:0:01:45 / Tue Apr 16 16:53:32 2019
GPGPU-Sim PTX: 22400000 instructions simulated : ctaid=(65,0,0) tid=(31,0,0)
GPGPU-Sim PTX: 22500000 instructions simulated : ctaid=(23,0,0) tid=(63,0,0)
GPGPU-Sim PTX: 22600000 instructions simulated : ctaid=(26,0,0) tid=(63,0,0)
GPGPU-Sim uArch: cycles simulated: 40000  inst.: 22638592 (ipc=566.0) sim_rate=213571 (inst/sec) elapsed = 0:0:01:46 / Tue Apr 16 16:53:33 2019
GPGPU-Sim PTX: 22700000 instructions simulated : ctaid=(63,0,0) tid=(31,0,0)
GPGPU-Sim PTX: 22800000 instructions simulated : ctaid=(40,0,0) tid=(31,0,0)
GPGPU-Sim PTX: 22900000 instructions simulated : ctaid=(45,0,0) tid=(31,0,0)
GPGPU-Sim uArch: cycles simulated: 40500  inst.: 22916704 (ipc=565.8) sim_rate=214174 (inst/sec) elapsed = 0:0:01:47 / Tue Apr 16 16:53:34 2019
GPGPU-Sim PTX: 23000000 instructions simulated : ctaid=(10,0,0) tid=(127,0,0)
GPGPU-Sim PTX: 23100000 instructions simulated : ctaid=(44,0,0) tid=(127,0,0)
GPGPU-Sim PTX: 23200000 instructions simulated : ctaid=(86,0,0) tid=(63,0,0)
GPGPU-Sim uArch: cycles simulated: 41000  inst.: 23198656 (ipc=565.8) sim_rate=212831 (inst/sec) elapsed = 0:0:01:49 / Tue Apr 16 16:53:36 2019
GPGPU-Sim PTX: 23300000 instructions simulated : ctaid=(55,0,0) tid=(31,0,0)
GPGPU-Sim PTX: 23400000 instructions simulated : ctaid=(38,0,0) tid=(95,0,0)
GPGPU-Sim PTX: 23500000 instructions simulated : ctaid=(40,0,0) tid=(127,0,0)
GPGPU-Sim uArch: cycles simulated: 41500  inst.: 23491872 (ipc=566.1) sim_rate=213562 (inst/sec) elapsed = 0:0:01:50 / Tue Apr 16 16:53:37 2019
GPGPU-Sim PTX: 23600000 instructions simulated : ctaid=(82,0,0) tid=(127,0,0)
GPGPU-Sim PTX: 23700000 instructions simulated : ctaid=(2,0,0) tid=(31,0,0)
GPGPU-Sim PTX: 23800000 instructions simulated : ctaid=(40,0,0) tid=(31,0,0)
GPGPU-Sim uArch: cycles simulated: 42000  inst.: 23774464 (ipc=566.1) sim_rate=214184 (inst/sec) elapsed = 0:0:01:51 / Tue Apr 16 16:53:38 2019
GPGPU-Sim PTX: 23900000 instructions simulated : ctaid=(13,0,0) tid=(95,0,0)
GPGPU-Sim PTX: 24000000 instructions simulated : ctaid=(23,0,0) tid=(63,0,0)
GPGPU-Sim PTX: 24100000 instructions simulated : ctaid=(33,0,0) tid=(127,0,0)
GPGPU-Sim uArch: cycles simulated: 42500  inst.: 24074624 (ipc=566.5) sim_rate=214952 (inst/sec) elapsed = 0:0:01:52 / Tue Apr 16 16:53:39 2019
GPGPU-Sim PTX: 24200000 instructions simulated : ctaid=(62,0,0) tid=(95,0,0)
GPGPU-Sim PTX: 24300000 instructions simulated : ctaid=(44,0,0) tid=(127,0,0)
GPGPU-Sim PTX: 24400000 instructions simulated : ctaid=(52,0,0) tid=(63,0,0)
GPGPU-Sim uArch: cycles simulated: 43000  inst.: 24391264 (ipc=567.2) sim_rate=213958 (inst/sec) elapsed = 0:0:01:54 / Tue Apr 16 16:53:41 2019
GPGPU-Sim PTX: 24500000 instructions simulated : ctaid=(103,0,0) tid=(31,0,0)
GPGPU-Sim PTX: 24600000 instructions simulated : ctaid=(30,0,0) tid=(127,0,0)
GPGPU-Sim PTX: 24700000 instructions simulated : ctaid=(37,0,0) tid=(31,0,0)
GPGPU-Sim uArch: cycles simulated: 43500  inst.: 24688864 (ipc=567.6) sim_rate=214685 (inst/sec) elapsed = 0:0:01:55 / Tue Apr 16 16:53:42 2019
GPGPU-Sim PTX: 24800000 instructions simulated : ctaid=(5,0,0) tid=(63,0,0)
GPGPU-Sim PTX: 24900000 instructions simulated : ctaid=(67,0,0) tid=(127,0,0)
GPGPU-Sim uArch: cycles simulated: 44000  inst.: 24960352 (ipc=567.3) sim_rate=215175 (inst/sec) elapsed = 0:0:01:56 / Tue Apr 16 16:53:43 2019
GPGPU-Sim PTX: 25000000 instructions simulated : ctaid=(43,0,0) tid=(95,0,0)
GPGPU-Sim PTX: 25100000 instructions simulated : ctaid=(0,0,0) tid=(95,0,0)
GPGPU-Sim PTX: 25200000 instructions simulated : ctaid=(89,0,0) tid=(31,0,0)
GPGPU-Sim uArch: cycles simulated: 44500  inst.: 25257952 (ipc=567.6) sim_rate=215879 (inst/sec) elapsed = 0:0:01:57 / Tue Apr 16 16:53:44 2019
GPGPU-Sim PTX: 25300000 instructions simulated : ctaid=(9,0,0) tid=(63,0,0)
GPGPU-Sim PTX: 25400000 instructions simulated : ctaid=(24,0,0) tid=(95,0,0)
GPGPU-Sim PTX: 25500000 instructions simulated : ctaid=(35,0,0) tid=(63,0,0)
GPGPU-Sim uArch: cycles simulated: 45000  inst.: 25556640 (ipc=567.9) sim_rate=214761 (inst/sec) elapsed = 0:0:01:59 / Tue Apr 16 16:53:46 2019
GPGPU-Sim PTX: 25600000 instructions simulated : ctaid=(19,0,0) tid=(63,0,0)
GPGPU-Sim PTX: 25700000 instructions simulated : ctaid=(15,0,0) tid=(95,0,0)
GPGPU-Sim PTX: 25800000 instructions simulated : ctaid=(48,0,0) tid=(95,0,0)
GPGPU-Sim uArch: cycles simulated: 45500  inst.: 25854688 (ipc=568.2) sim_rate=215455 (inst/sec) elapsed = 0:0:02:00 / Tue Apr 16 16:53:47 2019
GPGPU-Sim PTX: 25900000 instructions simulated : ctaid=(83,0,0) tid=(31,0,0)
GPGPU-Sim PTX: 26000000 instructions simulated : ctaid=(78,0,0) tid=(63,0,0)
GPGPU-Sim PTX: 26100000 instructions simulated : ctaid=(55,0,0) tid=(127,0,0)
GPGPU-Sim uArch: cycles simulated: 46000  inst.: 26124352 (ipc=567.9) sim_rate=215903 (inst/sec) elapsed = 0:0:02:01 / Tue Apr 16 16:53:48 2019
GPGPU-Sim PTX: 26200000 instructions simulated : ctaid=(10,0,0) tid=(127,0,0)
GPGPU-Sim PTX: 26300000 instructions simulated : ctaid=(43,0,0) tid=(95,0,0)
GPGPU-Sim PTX: 26400000 instructions simulated : ctaid=(55,0,0) tid=(31,0,0)
GPGPU-Sim uArch: cycles simulated: 46500  inst.: 26406368 (ipc=567.9) sim_rate=216445 (inst/sec) elapsed = 0:0:02:02 / Tue Apr 16 16:53:49 2019
GPGPU-Sim PTX: 26500000 instructions simulated : ctaid=(82,0,0) tid=(31,0,0)
GPGPU-Sim PTX: 26600000 instructions simulated : ctaid=(91,0,0) tid=(31,0,0)
GPGPU-Sim PTX: 26700000 instructions simulated : ctaid=(22,0,0) tid=(127,0,0)
GPGPU-Sim uArch: cycles simulated: 47000  inst.: 26694272 (ipc=568.0) sim_rate=217026 (inst/sec) elapsed = 0:0:02:03 / Tue Apr 16 16:53:50 2019
GPGPU-Sim PTX: 26800000 instructions simulated : ctaid=(19,0,0) tid=(127,0,0)
GPGPU-Sim PTX: 26900000 instructions simulated : ctaid=(25,0,0) tid=(31,0,0)
GPGPU-Sim PTX: 27000000 instructions simulated : ctaid=(47,0,0) tid=(127,0,0)
GPGPU-Sim uArch: cycles simulated: 47500  inst.: 26988000 (ipc=568.2) sim_rate=215904 (inst/sec) elapsed = 0:0:02:05 / Tue Apr 16 16:53:52 2019
GPGPU-Sim PTX: 27100000 instructions simulated : ctaid=(38,0,0) tid=(63,0,0)
GPGPU-Sim PTX: 27200000 instructions simulated : ctaid=(49,0,0) tid=(95,0,0)
GPGPU-Sim PTX: 27300000 instructions simulated : ctaid=(74,0,0) tid=(31,0,0)
GPGPU-Sim uArch: cycles simulated: 48000  inst.: 27295584 (ipc=568.7) sim_rate=216631 (inst/sec) elapsed = 0:0:02:06 / Tue Apr 16 16:53:53 2019
GPGPU-Sim PTX: 27400000 instructions simulated : ctaid=(33,0,0) tid=(63,0,0)
GPGPU-Sim PTX: 27500000 instructions simulated : ctaid=(91,0,0) tid=(31,0,0)
GPGPU-Sim PTX: 27600000 instructions simulated : ctaid=(39,0,0) tid=(31,0,0)
GPGPU-Sim uArch: cycles simulated: 48500  inst.: 27570912 (ipc=568.5) sim_rate=217093 (inst/sec) elapsed = 0:0:02:07 / Tue Apr 16 16:53:54 2019
GPGPU-Sim PTX: 27700000 instructions simulated : ctaid=(36,0,0) tid=(31,0,0)
GPGPU-Sim PTX: 27800000 instructions simulated : ctaid=(13,0,0) tid=(31,0,0)
GPGPU-Sim uArch: cycles simulated: 49000  inst.: 27846208 (ipc=568.3) sim_rate=217548 (inst/sec) elapsed = 0:0:02:08 / Tue Apr 16 16:53:55 2019
GPGPU-Sim PTX: 27900000 instructions simulated : ctaid=(35,0,0) tid=(95,0,0)
GPGPU-Sim PTX: 28000000 instructions simulated : ctaid=(85,0,0) tid=(95,0,0)
GPGPU-Sim PTX: 28100000 instructions simulated : ctaid=(85,0,0) tid=(95,0,0)
GPGPU-Sim uArch: cycles simulated: 49500  inst.: 28142624 (ipc=568.5) sim_rate=216481 (inst/sec) elapsed = 0:0:02:10 / Tue Apr 16 16:53:57 2019
GPGPU-Sim PTX: 28200000 instructions simulated : ctaid=(68,0,0) tid=(31,0,0)
GPGPU-Sim PTX: 28300000 instructions simulated : ctaid=(90,0,0) tid=(63,0,0)
GPGPU-Sim PTX: 28400000 instructions simulated : ctaid=(80,0,0) tid=(63,0,0)
GPGPU-Sim uArch: cycles simulated: 50000  inst.: 28429792 (ipc=568.6) sim_rate=217021 (inst/sec) elapsed = 0:0:02:11 / Tue Apr 16 16:53:58 2019
GPGPU-Sim PTX: 28500000 instructions simulated : ctaid=(4,0,0) tid=(127,0,0)
GPGPU-Sim PTX: 28600000 instructions simulated : ctaid=(17,0,0) tid=(95,0,0)
GPGPU-Sim PTX: 28700000 instructions simulated : ctaid=(79,0,0) tid=(127,0,0)
GPGPU-Sim uArch: cycles simulated: 50500  inst.: 28722176 (ipc=568.8) sim_rate=217592 (inst/sec) elapsed = 0:0:02:12 / Tue Apr 16 16:53:59 2019
GPGPU-Sim PTX: 28800000 instructions simulated : ctaid=(48,0,0) tid=(127,0,0)
GPGPU-Sim PTX: 28900000 instructions simulated : ctaid=(69,0,0) tid=(31,0,0)
GPGPU-Sim PTX: 29000000 instructions simulated : ctaid=(43,0,0) tid=(31,0,0)
GPGPU-Sim uArch: cycles simulated: 51000  inst.: 29021632 (ipc=569.1) sim_rate=218207 (inst/sec) elapsed = 0:0:02:13 / Tue Apr 16 16:54:00 2019
GPGPU-Sim PTX: 29100000 instructions simulated : ctaid=(57,0,0) tid=(31,0,0)
GPGPU-Sim PTX: 29200000 instructions simulated : ctaid=(32,0,0) tid=(127,0,0)
GPGPU-Sim PTX: 29300000 instructions simulated : ctaid=(47,0,0) tid=(127,0,0)
GPGPU-Sim uArch: cycles simulated: 51500  inst.: 29301792 (ipc=569.0) sim_rate=217050 (inst/sec) elapsed = 0:0:02:15 / Tue Apr 16 16:54:02 2019
GPGPU-Sim PTX: 29400000 instructions simulated : ctaid=(40,0,0) tid=(95,0,0)
GPGPU-Sim PTX: 29500000 instructions simulated : ctaid=(26,0,0) tid=(63,0,0)
GPGPU-Sim PTX: 29600000 instructions simulated : ctaid=(35,0,0) tid=(63,0,0)
GPGPU-Sim uArch: cycles simulated: 52000  inst.: 29567968 (ipc=568.6) sim_rate=217411 (inst/sec) elapsed = 0:0:02:16 / Tue Apr 16 16:54:03 2019
GPGPU-Sim PTX: 29700000 instructions simulated : ctaid=(18,0,0) tid=(31,0,0)
GPGPU-Sim PTX: 29800000 instructions simulated : ctaid=(55,0,0) tid=(31,0,0)
GPGPU-Sim uArch: cycles simulated: 52500  inst.: 29833920 (ipc=568.3) sim_rate=217765 (inst/sec) elapsed = 0:0:02:17 / Tue Apr 16 16:54:04 2019
GPGPU-Sim PTX: 29900000 instructions simulated : ctaid=(13,0,0) tid=(31,0,0)
GPGPU-Sim PTX: 30000000 instructions simulated : ctaid=(45,0,0) tid=(63,0,0)
GPGPU-Sim PTX: 30100000 instructions simulated : ctaid=(32,0,0) tid=(31,0,0)
GPGPU-Sim uArch: cycles simulated: 53000  inst.: 30142112 (ipc=568.7) sim_rate=218421 (inst/sec) elapsed = 0:0:02:18 / Tue Apr 16 16:54:05 2019
GPGPU-Sim PTX: 30200000 instructions simulated : ctaid=(67,0,0) tid=(95,0,0)
GPGPU-Sim PTX: 30300000 instructions simulated : ctaid=(64,0,0) tid=(127,0,0)
GPGPU-Sim PTX: 30400000 instructions simulated : ctaid=(73,0,0) tid=(95,0,0)
GPGPU-Sim uArch: cycles simulated: 53500  inst.: 30441120 (ipc=569.0) sim_rate=219000 (inst/sec) elapsed = 0:0:02:19 / Tue Apr 16 16:54:06 2019
GPGPU-Sim PTX: 30500000 instructions simulated : ctaid=(76,0,0) tid=(127,0,0)
GPGPU-Sim PTX: 30600000 instructions simulated : ctaid=(12,0,0) tid=(95,0,0)
GPGPU-Sim PTX: 30700000 instructions simulated : ctaid=(84,0,0) tid=(95,0,0)
GPGPU-Sim uArch: cycles simulated: 54000  inst.: 30746976 (ipc=569.4) sim_rate=218063 (inst/sec) elapsed = 0:0:02:21 / Tue Apr 16 16:54:08 2019
GPGPU-Sim PTX: 30800000 instructions simulated : ctaid=(112,0,0) tid=(31,0,0)
GPGPU-Sim PTX: 30900000 instructions simulated : ctaid=(119,0,0) tid=(63,0,0)
GPGPU-Sim PTX: 31000000 instructions simulated : ctaid=(49,0,0) tid=(95,0,0)
GPGPU-Sim uArch: cycles simulated: 54500  inst.: 31026144 (ipc=569.3) sim_rate=218493 (inst/sec) elapsed = 0:0:02:22 / Tue Apr 16 16:54:09 2019
GPGPU-Sim PTX: 31100000 instructions simulated : ctaid=(22,0,0) tid=(31,0,0)
GPGPU-Sim PTX: 31200000 instructions simulated : ctaid=(8,0,0) tid=(127,0,0)
GPGPU-Sim PTX: 31300000 instructions simulated : ctaid=(45,0,0) tid=(31,0,0)
GPGPU-Sim uArch: cycles simulated: 55000  inst.: 31310624 (ipc=569.3) sim_rate=218955 (inst/sec) elapsed = 0:0:02:23 / Tue Apr 16 16:54:10 2019
GPGPU-Sim PTX: 31400000 instructions simulated : ctaid=(25,0,0) tid=(127,0,0)
GPGPU-Sim PTX: 31500000 instructions simulated : ctaid=(52,0,0) tid=(127,0,0)
GPGPU-Sim PTX: 31600000 instructions simulated : ctaid=(16,0,0) tid=(31,0,0)
GPGPU-Sim uArch: cycles simulated: 55500  inst.: 31613952 (ipc=569.6) sim_rate=219541 (inst/sec) elapsed = 0:0:02:24 / Tue Apr 16 16:54:11 2019
GPGPU-Sim PTX: 31700000 instructions simulated : ctaid=(5,0,0) tid=(127,0,0)
GPGPU-Sim PTX: 31800000 instructions simulated : ctaid=(30,0,0) tid=(95,0,0)
GPGPU-Sim PTX: 31900000 instructions simulated : ctaid=(75,0,0) tid=(95,0,0)
GPGPU-Sim uArch: cycles simulated: 56000  inst.: 31919520 (ipc=570.0) sim_rate=218626 (inst/sec) elapsed = 0:0:02:26 / Tue Apr 16 16:54:13 2019
GPGPU-Sim PTX: 32000000 instructions simulated : ctaid=(69,0,0) tid=(31,0,0)
GPGPU-Sim PTX: 32100000 instructions simulated : ctaid=(115,0,0) tid=(31,0,0)
GPGPU-Sim PTX: 32200000 instructions simulated : ctaid=(3,0,0) tid=(127,0,0)
GPGPU-Sim uArch: cycles simulated: 56500  inst.: 32213120 (ipc=570.1) sim_rate=219136 (inst/sec) elapsed = 0:0:02:27 / Tue Apr 16 16:54:14 2019
GPGPU-Sim PTX: 32300000 instructions simulated : ctaid=(3,0,0) tid=(31,0,0)
GPGPU-Sim PTX: 32400000 instructions simulated : ctaid=(45,0,0) tid=(95,0,0)
GPGPU-Sim PTX: 32500000 instructions simulated : ctaid=(88,0,0) tid=(95,0,0)
GPGPU-Sim uArch: cycles simulated: 57000  inst.: 32499584 (ipc=570.2) sim_rate=219591 (inst/sec) elapsed = 0:0:02:28 / Tue Apr 16 16:54:15 2019
GPGPU-Sim PTX: 32600000 instructions simulated : ctaid=(30,0,0) tid=(95,0,0)
GPGPU-Sim PTX: 32700000 instructions simulated : ctaid=(68,0,0) tid=(31,0,0)
GPGPU-Sim PTX: 32800000 instructions simulated : ctaid=(28,0,0) tid=(127,0,0)
GPGPU-Sim uArch: cycles simulated: 57500  inst.: 32791712 (ipc=570.3) sim_rate=220078 (inst/sec) elapsed = 0:0:02:29 / Tue Apr 16 16:54:16 2019
GPGPU-Sim PTX: 32900000 instructions simulated : ctaid=(61,0,0) tid=(31,0,0)
GPGPU-Sim PTX: 33000000 instructions simulated : ctaid=(38,0,0) tid=(127,0,0)
GPGPU-Sim PTX: 33100000 instructions simulated : ctaid=(53,0,0) tid=(63,0,0)
GPGPU-Sim uArch: cycles simulated: 58000  inst.: 33085152 (ipc=570.4) sim_rate=219106 (inst/sec) elapsed = 0:0:02:31 / Tue Apr 16 16:54:18 2019
GPGPU-Sim PTX: 33200000 instructions simulated : ctaid=(29,0,0) tid=(31,0,0)
GPGPU-Sim PTX: 33300000 instructions simulated : ctaid=(51,0,0) tid=(63,0,0)
GPGPU-Sim PTX: 33400000 instructions simulated : ctaid=(103,0,0) tid=(63,0,0)
GPGPU-Sim uArch: cycles simulated: 58500  inst.: 33375456 (ipc=570.5) sim_rate=219575 (inst/sec) elapsed = 0:0:02:32 / Tue Apr 16 16:54:19 2019
GPGPU-Sim PTX: 33500000 instructions simulated : ctaid=(33,0,0) tid=(63,0,0)
GPGPU-Sim PTX: 33600000 instructions simulated : ctaid=(20,0,0) tid=(127,0,0)
GPGPU-Sim PTX: 33700000 instructions simulated : ctaid=(47,0,0) tid=(95,0,0)
GPGPU-Sim uArch: cycles simulated: 59000  inst.: 33666016 (ipc=570.6) sim_rate=220039 (inst/sec) elapsed = 0:0:02:33 / Tue Apr 16 16:54:20 2019
GPGPU-Sim PTX: 33800000 instructions simulated : ctaid=(82,0,0) tid=(31,0,0)
GPGPU-Sim PTX: 33900000 instructions simulated : ctaid=(52,0,0) tid=(63,0,0)
GPGPU-Sim uArch: cycles simulated: 59500  inst.: 33951648 (ipc=570.6) sim_rate=219042 (inst/sec) elapsed = 0:0:02:35 / Tue Apr 16 16:54:22 2019
GPGPU-Sim PTX: 34000000 instructions simulated : ctaid=(23,0,0) tid=(127,0,0)
GPGPU-Sim PTX: 34100000 instructions simulated : ctaid=(94,0,0) tid=(31,0,0)
GPGPU-Sim PTX: 34200000 instructions simulated : ctaid=(22,0,0) tid=(31,0,0)
GPGPU-Sim uArch: cycles simulated: 60000  inst.: 34223872 (ipc=570.4) sim_rate=219383 (inst/sec) elapsed = 0:0:02:36 / Tue Apr 16 16:54:23 2019
GPGPU-Sim PTX: 34300000 instructions simulated : ctaid=(54,0,0) tid=(95,0,0)
GPGPU-Sim PTX: 34400000 instructions simulated : ctaid=(58,0,0) tid=(127,0,0)
GPGPU-Sim PTX: 34500000 instructions simulated : ctaid=(91,0,0) tid=(31,0,0)
GPGPU-Sim uArch: cycles simulated: 60500  inst.: 34491712 (ipc=570.1) sim_rate=219692 (inst/sec) elapsed = 0:0:02:37 / Tue Apr 16 16:54:24 2019
GPGPU-Sim PTX: 34600000 instructions simulated : ctaid=(68,0,0) tid=(63,0,0)
GPGPU-Sim PTX: 34700000 instructions simulated : ctaid=(84,0,0) tid=(95,0,0)
GPGPU-Sim uArch: cycles simulated: 61000  inst.: 34747232 (ipc=569.6) sim_rate=218536 (inst/sec) elapsed = 0:0:02:39 / Tue Apr 16 16:54:26 2019
GPGPU-Sim PTX: 34800000 instructions simulated : ctaid=(89,0,0) tid=(31,0,0)
GPGPU-Sim PTX: 34900000 instructions simulated : ctaid=(61,0,0) tid=(127,0,0)
GPGPU-Sim PTX: 35000000 instructions simulated : ctaid=(89,0,0) tid=(95,0,0)
GPGPU-Sim uArch: cycles simulated: 61500  inst.: 35007232 (ipc=569.2) sim_rate=218795 (inst/sec) elapsed = 0:0:02:40 / Tue Apr 16 16:54:27 2019
GPGPU-Sim PTX: 35100000 instructions simulated : ctaid=(32,0,0) tid=(63,0,0)
GPGPU-Sim PTX: 35200000 instructions simulated : ctaid=(48,0,0) tid=(127,0,0)
GPGPU-Sim PTX: 35300000 instructions simulated : ctaid=(98,0,0) tid=(63,0,0)
GPGPU-Sim uArch: cycles simulated: 62000  inst.: 35272288 (ipc=568.9) sim_rate=219082 (inst/sec) elapsed = 0:0:02:41 / Tue Apr 16 16:54:28 2019
GPGPU-Sim PTX: 35400000 instructions simulated : ctaid=(28,0,0) tid=(31,0,0)
GPGPU-Sim PTX: 35500000 instructions simulated : ctaid=(71,0,0) tid=(127,0,0)
GPGPU-Sim uArch: cycles simulated: 62500  inst.: 35543712 (ipc=568.7) sim_rate=219405 (inst/sec) elapsed = 0:0:02:42 / Tue Apr 16 16:54:29 2019
GPGPU-Sim PTX: 35600000 instructions simulated : ctaid=(70,0,0) tid=(63,0,0)
GPGPU-Sim PTX: 35700000 instructions simulated : ctaid=(29,0,0) tid=(63,0,0)
GPGPU-Sim PTX: 35800000 instructions simulated : ctaid=(118,0,0) tid=(95,0,0)
GPGPU-Sim uArch: cycles simulated: 63000  inst.: 35792928 (ipc=568.1) sim_rate=218249 (inst/sec) elapsed = 0:0:02:44 / Tue Apr 16 16:54:31 2019
GPGPU-Sim uArch: Shader 2 finished CTA #0 (63066,0), 7 CTAs running
GPGPU-Sim uArch: core:  2, cta: 0 initialized @(63067,0)
GPGPU-Sim PTX: 35900000 instructions simulated : ctaid=(10,0,0) tid=(63,0,0)
GPGPU-Sim PTX: 36000000 instructions simulated : ctaid=(86,0,0) tid=(31,0,0)
GPGPU-Sim uArch: cycles simulated: 63500  inst.: 36031968 (ipc=567.4) sim_rate=218375 (inst/sec) elapsed = 0:0:02:45 / Tue Apr 16 16:54:32 2019
GPGPU-Sim PTX: 36100000 instructions simulated : ctaid=(37,0,0) tid=(127,0,0)
GPGPU-Sim PTX: 36200000 instructions simulated : ctaid=(99,0,0) tid=(31,0,0)
GPGPU-Sim uArch: Shader 4 finished CTA #0 (63957,0), 7 CTAs running
GPGPU-Sim uArch: core:  4, cta: 0 initialized @(63958,0)
GPGPU-Sim uArch: Shader 1 finished CTA #0 (63966,0), 7 CTAs running
GPGPU-Sim uArch: core:  1, cta: 0 initialized @(63967,0)
GPGPU-Sim PTX: 36300000 instructions simulated : ctaid=(46,0,0) tid=(127,0,0)
GPGPU-Sim uArch: cycles simulated: 64000  inst.: 36273312 (ipc=566.8) sim_rate=218513 (inst/sec) elapsed = 0:0:02:46 / Tue Apr 16 16:54:33 2019
GPGPU-Sim PTX: 36400000 instructions simulated : ctaid=(55,0,0) tid=(31,0,0)
GPGPU-Sim PTX: 36500000 instructions simulated : ctaid=(54,0,0) tid=(127,0,0)
GPGPU-Sim uArch: cycles simulated: 64500  inst.: 36518464 (ipc=566.2) sim_rate=218673 (inst/sec) elapsed = 0:0:02:47 / Tue Apr 16 16:54:34 2019
GPGPU-Sim uArch: Shader 10 finished CTA #0 (64575,0), 7 CTAs running
GPGPU-Sim uArch: core: 10, cta: 0 initialized @(64576,0)
GPGPU-Sim PTX: 36600000 instructions simulated : ctaid=(48,0,0) tid=(31,0,0)
GPGPU-Sim PTX: 36700000 instructions simulated : ctaid=(30,0,0) tid=(127,0,0)
GPGPU-Sim uArch: Shader 6 finished CTA #0 (64869,0), 7 CTAs running
GPGPU-Sim uArch: core:  6, cta: 0 initialized @(64870,0)
GPGPU-Sim PTX: 36800000 instructions simulated : ctaid=(84,0,0) tid=(95,0,0)
GPGPU-Sim uArch: cycles simulated: 65000  inst.: 36770432 (ipc=565.7) sim_rate=218871 (inst/sec) elapsed = 0:0:02:48 / Tue Apr 16 16:54:35 2019
GPGPU-Sim PTX: 36900000 instructions simulated : ctaid=(87,0,0) tid=(95,0,0)
GPGPU-Sim PTX: 37000000 instructions simulated : ctaid=(43,0,0) tid=(31,0,0)
GPGPU-Sim uArch: cycles simulated: 65500  inst.: 37030880 (ipc=565.4) sim_rate=217828 (inst/sec) elapsed = 0:0:02:50 / Tue Apr 16 16:54:37 2019
GPGPU-Sim PTX: 37100000 instructions simulated : ctaid=(35,0,0) tid=(63,0,0)
GPGPU-Sim uArch: Shader 0 finished CTA #0 (65666,0), 7 CTAs running
GPGPU-Sim uArch: core:  0, cta: 0 initialized @(65667,0)
GPGPU-Sim PTX: 37200000 instructions simulated : ctaid=(82,0,0) tid=(31,0,0)
GPGPU-Sim uArch: Shader 3 finished CTA #0 (65903,0), 7 CTAs running
GPGPU-Sim uArch: core:  3, cta: 0 initialized @(65904,0)
GPGPU-Sim PTX: 37300000 instructions simulated : ctaid=(81,0,0) tid=(127,0,0)
GPGPU-Sim uArch: cycles simulated: 66000  inst.: 37297312 (ipc=565.1) sim_rate=218112 (inst/sec) elapsed = 0:0:02:51 / Tue Apr 16 16:54:38 2019
GPGPU-Sim uArch: Shader 14 finished CTA #0 (66044,0), 7 CTAs running
GPGPU-Sim uArch: core: 14, cta: 0 initialized @(66045,0)
GPGPU-Sim PTX: 37400000 instructions simulated : ctaid=(81,0,0) tid=(31,0,0)
GPGPU-Sim uArch: Shader 8 finished CTA #0 (66182,0), 7 CTAs running
GPGPU-Sim uArch: core:  8, cta: 0 initialized @(66183,0)
GPGPU-Sim uArch: Shader 12 finished CTA #0 (66203,0), 7 CTAs running
GPGPU-Sim uArch: core: 12, cta: 0 initialized @(66204,0)
GPGPU-Sim PTX: 37500000 instructions simulated : ctaid=(122,0,0) tid=(31,0,0)
GPGPU-Sim uArch: Shader 3 finished CTA #1 (66336,0), 7 CTAs running
GPGPU-Sim uArch: core:  3, cta: 1 initialized @(66337,0)
GPGPU-Sim PTX: 37600000 instructions simulated : ctaid=(74,0,0) tid=(95,0,0)
GPGPU-Sim uArch: cycles simulated: 66500  inst.: 37574016 (ipc=565.0) sim_rate=217190 (inst/sec) elapsed = 0:0:02:53 / Tue Apr 16 16:54:40 2019
GPGPU-Sim uArch: Shader 11 finished CTA #0 (66530,0), 7 CTAs running
GPGPU-Sim uArch: core: 11, cta: 0 initialized @(66531,0)
GPGPU-Sim uArch: Shader 12 finished CTA #1 (66539,0), 7 CTAs running
GPGPU-Sim uArch: core: 12, cta: 1 initialized @(66540,0)
GPGPU-Sim uArch: Shader 9 finished CTA #0 (66588,0), 7 CTAs running
GPGPU-Sim uArch: core:  9, cta: 0 initialized @(66589,0)
GPGPU-Sim PTX: 37700000 instructions simulated : ctaid=(94,0,0) tid=(31,0,0)
GPGPU-Sim uArch: Shader 8 finished CTA #1 (66623,0), 7 CTAs running
GPGPU-Sim uArch: core:  8, cta: 1 initialized @(66624,0)
GPGPU-Sim uArch: Shader 5 finished CTA #0 (66733,0), 7 CTAs running
GPGPU-Sim uArch: core:  5, cta: 0 initialized @(66734,0)
GPGPU-Sim PTX: 37800000 instructions simulated : ctaid=(15,0,0) tid=(63,0,0)
GPGPU-Sim uArch: Shader 14 finished CTA #1 (66781,0), 7 CTAs running
GPGPU-Sim uArch: core: 14, cta: 1 initialized @(66782,0)
GPGPU-Sim uArch: Shader 11 finished CTA #1 (66909,0), 7 CTAs running
GPGPU-Sim uArch: core: 11, cta: 1 initialized @(66910,0)
GPGPU-Sim PTX: 37900000 instructions simulated : ctaid=(33,0,0) tid=(63,0,0)
GPGPU-Sim uArch: cycles simulated: 67000  inst.: 37876416 (ipc=565.3) sim_rate=217680 (inst/sec) elapsed = 0:0:02:54 / Tue Apr 16 16:54:41 2019
GPGPU-Sim uArch: Shader 10 finished CTA #1 (67030,0), 7 CTAs running
GPGPU-Sim uArch: core: 10, cta: 1 initialized @(67031,0)
GPGPU-Sim PTX: 38000000 instructions simulated : ctaid=(81,0,0) tid=(95,0,0)
GPGPU-Sim uArch: Shader 2 finished CTA #1 (67235,0), 7 CTAs running
GPGPU-Sim uArch: core:  2, cta: 1 initialized @(67236,0)
GPGPU-Sim uArch: Shader 5 finished CTA #1 (67285,0), 7 CTAs running
GPGPU-Sim uArch: core:  5, cta: 1 initialized @(67286,0)
GPGPU-Sim PTX: 38100000 instructions simulated : ctaid=(110,0,0) tid=(127,0,0)
GPGPU-Sim uArch: Shader 0 finished CTA #1 (67413,0), 7 CTAs running
GPGPU-Sim uArch: core:  0, cta: 1 initialized @(67414,0)
GPGPU-Sim uArch: Shader 13 finished CTA #0 (67472,0), 7 CTAs running
GPGPU-Sim uArch: core: 13, cta: 0 initialized @(67473,0)
GPGPU-Sim PTX: 38200000 instructions simulated : ctaid=(81,0,0) tid=(31,0,0)
GPGPU-Sim uArch: cycles simulated: 67500  inst.: 38169504 (ipc=565.5) sim_rate=218111 (inst/sec) elapsed = 0:0:02:55 / Tue Apr 16 16:54:42 2019
GPGPU-Sim PTX: 38300000 instructions simulated : ctaid=(120,0,0) tid=(31,0,0)
GPGPU-Sim PTX: 38400000 instructions simulated : ctaid=(61,0,0) tid=(31,0,0)
GPGPU-Sim uArch: Shader 1 finished CTA #1 (67831,0), 7 CTAs running
GPGPU-Sim uArch: core:  1, cta: 1 initialized @(67832,0)
GPGPU-Sim uArch: Shader 7 finished CTA #0 (67855,0), 7 CTAs running
GPGPU-Sim uArch: core:  7, cta: 0 initialized @(67856,0)
GPGPU-Sim PTX: 38500000 instructions simulated : ctaid=(106,0,0) tid=(95,0,0)
GPGPU-Sim uArch: cycles simulated: 68000  inst.: 38471776 (ipc=565.8) sim_rate=217354 (inst/sec) elapsed = 0:0:02:57 / Tue Apr 16 16:54:44 2019
GPGPU-Sim PTX: 38600000 instructions simulated : ctaid=(37,0,0) tid=(127,0,0)
GPGPU-Sim uArch: Shader 10 finished CTA #2 (68162,0), 7 CTAs running
GPGPU-Sim uArch: core: 10, cta: 2 initialized @(68163,0)
GPGPU-Sim uArch: Shader 6 finished CTA #2 (68181,0), 7 CTAs running
[...]
max_icnt2sh_latency = 345052 
mrq_lat_table:122016 	3855 	6007 	13936 	43884 	70506 	94329 	66464 	15887 	621 	4 	0 	0 	0 	0 	0 	0 	0 	0 	0 	0 	0 	0 	0 	0 	0 	0 	0 	0 	0 	0 	0 	
dq_lat_table:0 	0 	0 	0 	0 	0 	0 	0 	0 	0 	0 	0 	0 	0 	0 	0 	0 	0 	0 	0 	0 	0 	0 	0 	0 	0 	0 	0 	0 	0 	0 	0 	
mf_lat_table:0 	0 	0 	0 	0 	0 	0 	88 	44746 	250795 	16885 	1 	0 	0 	0 	0 	0 	0 	0 	0 	0 	0 	0 	0 	0 	0 	0 	0 	0 	0 	0 	0 	
icnt2mem_lat_table:0 	0 	0 	21432 	9922 	20798 	80665 	75564 	100137 	4117 	0 	0 	0 	0 	0 	0 	0 	0 	0 	0 	0 	0 	0 	0 	
icnt2sh_lat_table:0 	0 	0 	130722 	54584 	2196 	13 	0 	0 	0 	0 	171 	1471 	3145 	6254 	12120 	24697 	49228 	27914 	0 	0 	0 	0 	0 	
mf_lat_pw_table:0 	0 	0 	0 	0 	0 	0 	0 	52 	636 	0 	0 	0 	0 	0 	0 	0 	0 	0 	0 	0 	0 	0 	0 	0 	0 	0 	0 	0 	0 	0 	0 	
maximum concurrent accesses to same row:
dram[0]:        31        31        18        22        22        20        38        34        26        16        30        32        32        30        20        22 
dram[1]:        27        34        14        16        24        20        32        32        18        18        30        26        32        30        20        18 
dram[2]:        32        31        16        16        20        28        36        32        20        24        30        30        32        30        22        22 
dram[3]:        27        28        18        26        20        28        32        32        18        24        30        24        32        30        18        22 
dram[4]:        32        31        16        20        20        24        36        34        16        22        30        30        30        30        28        22 
dram[5]:        26        30        14        24        20        28        32        32        22        30        24        32        32        30        20        28 
maximum service time to same row:
dram[0]:      3360      3187      4216      3892      3694      2784      2331      2353      6048      4973      2457      2520      2961      3160      6151      4716 
dram[1]:      2352      2953      3665      3602      3707      4096      2323      2391      5491      4342      2368      2443      3641      2946      5675      4675 
dram[2]:      2166      3234      4156      3889      2309      2289      2338      2409      4589      4768      2401      2501      2792      3035      4639      4390 
dram[3]:      1883      3076      3754      3571      2331      2297      2431      2386      4538      4196      2468      2748      3153      2880      4541      4344 
dram[4]:      3191      3288      4063      4103      2830      3327      2414      2347      5090      4351      2628      2637      3235      3267      4853      4893 
dram[5]:      2975      3087      3659      3520      2304      2322      2363      2535      4842      4248      2506      2487      3348      3183      4501      4569 
average row accesses per activate:
dram[0]:  1.570440  1.568166  1.551049  1.556399  1.565999  1.581298  1.588337  1.597765  1.566051  1.557522  1.574131  1.584488  1.574131  1.571429  1.572509  1.592760 
dram[1]:  1.553957  1.563298  1.532609  1.544148  1.555784  1.556853  1.585586  1.586685  1.543860  1.539704  1.564444  1.563910  1.560709  1.572509  1.564979  1.553820 
dram[2]:  1.557158  1.579644  1.543620  1.546265  1.557388  1.575547  1.577387  1.609567  1.545946  1.562842  1.575758  1.585036  1.571968  1.582296  1.567123  1.573049 
dram[3]:  1.561446  1.565458  1.538881  1.542564  1.540972  1.560372  1.571968  1.585586  1.546991  1.537634  1.576844  1.551186  1.551712  1.563375  1.552239  1.556463 
dram[4]:  1.572122  1.570340  1.556399  1.548919  1.567624  1.569550  1.602802  1.591099  1.556992  1.556463  1.581203  1.575758  1.567123  1.571429  1.581203  1.571429 
dram[5]:  1.549556  1.555784  1.540984  1.555862  1.550462  1.547067  1.566051  1.587236  1.541779  1.541779  1.564444  1.569811  1.559646  1.573590  1.553293  1.559646 
average row locality = 437509/279678 = 1.564331
number of total memory accesses made:
dram[0]:         0         0         0         0         0         0         0         0         0         0         0         0         0         0         0         0 
dram[1]:         0         0         0         0         0         0         0         0         0         0         0         0         0         0         0         0 
dram[2]:         0         0         0         0         0         0         0         0         0         0         0         0         0         0         0         0 
dram[3]:         0         0         0         0         0         0         0         0         0         0         0         0         0         0         0         0 
dram[4]:         0         0         0         0         0         0         0         0         0         0         0         0         0         0         0         0 
dram[5]:         0         0         0         0         0         0         0         0         0         0         0         0         0         0         0         0 
total accesses: 0
min_bank_accesses = 0!
min_chip_accesses = 0!
number of total read accesses:
dram[0]:      3251      3246      3232      3232      3242      3242      3264      3264      3264      3264      3264      3264      3264      3264      3264      3264 
dram[1]:      3250      3246      3232      3232      3242      3242      3264      3264      3264      3264      3264      3264      3264      3264      3264      3264 
dram[2]:      3250      3246      3232      3232      3242      3244      3264      3264      3264      3264      3264      3264      3264      3264      3264      3264 
dram[3]:      3250      3246      3232      3232      3242      3244      3264      3264      3264      3264      3264      3264      3264      3264      3264      3264 
dram[4]:      3248      3246      3232      3232      3242      3244      3264      3264      3264      3264      3264      3264      3264      3264      3264      3264 
dram[5]:      3248      3246      3232      3232      3242      3244      3264      3264      3264      3264      3264      3264      3264      3264      3264      3264 
total reads: 312509
bank skew: 3264/3232 = 1.01
chip skew: 52086/52084 = 1.00
number of total write accesses:
dram[0]:      1286      1286      1280      1280      1290      1290      1312      1312      1312      1312      1312      1312      1312      1312      1312      1312 
dram[1]:      1286      1286      1280      1280      1290      1290      1312      1312      1312      1312      1312      1312      1312      1312      1312      1312 
dram[2]:      1286      1286      1280      1280      1290      1292      1312      1312      1312      1312      1312      1312      1312      1312      1312      1312 
dram[3]:      1286      1286      1280      1280      1290      1292      1312      1312      1312      1312      1312      1312      1312      1312      1312      1312 
dram[4]:      1286      1286      1280      1280      1290      1292      1312      1312      1312      1312      1312      1312      1312      1312      1312      1312 
dram[5]:      1286      1286      1280      1280      1290      1292      1312      1312      1312      1312      1312      1312      1312      1312      1312      1312 
total reads: 125000
bank skew: 1312/1280 = 1.02
chip skew: 20834/20832 = 1.00
average mf latency per bank:
dram[0]:        484       477       488       479       489       484       491       497       480       479       487       479       489       493       500       505
dram[1]:        452       458       455       467       463       466       466       480       461       461       453       455       464       471       478       484
dram[2]:        501       504       504       520       512       516       512       525       506       511       509       507       507       522       526       530
dram[3]:        456       463       458       471       459       472       467       481       455       467       455       465       462       475       473       490
dram[4]:        572       586       579       597       582       599       584       605       578       589       575       589       583       597       599       612
dram[5]:        494       502       504       515       510       517       512       517       498       506       501       509       503       517       523       535
maximum mf latency per bank:
dram[0]:       1452      1595      1423      1279      1574      1512      1433      1755      1593      1536      1445      1464      1606      1535      1616      1693
dram[1]:       1246      1910      1297      1388      1334      1423      1292      1740      1288      1633      1456      1397      1369      1404      1273      1464
dram[2]:       1772      1643      1320      1415      1391      1385      1526      1516      2442      1854      1495      1462      1561      1502      1625      1693
dram[3]:       1794      1324      1239      1395      1345      1546      1403      1435      1345      1425      1298      1461      1510      1359      1612      1677
dram[4]:       1647      1458      1534      1493      1582      1636      1566      1539      1750      1571      1831      1561      1709      1653      1779      1736
dram[5]:       1381      1431      1390      1368      1506      1665      1518      1439      1382      1323      1367      1381      1409      1452      1434      1425

Number of Memory Banks Accessed per Memory Operation per Warp (from 0):
0	0	0	0	0	0	0	0	0	0	0	0	0	0	0	0	0	0	0	0	0	0	0	0	0	0	0	0	0	0	0	0	0	0	0	0	0	0	0	0	0	0	0	0	0	0	0	0	0	0	0	0	0	0	0	0	0	0	0	0	0	0	0	0	0	0	0	0	0	0	0	0	0	0	0	0	0	0	0	0	0	0	0	0	0	0	0	0	0	0	0	0	0	0	0	0	
Average # of Memory Banks Accessed per Memory Operation per Warp=-nan

position of mrq chosen
0	0	0	0	0	0	0	0	0	0	0	0	0	0	0	0	

average position of mrq chosen = -nan
Memory Partition 0: 
Cache L2_bank_000:
MSHR contents

Cache L2_bank_001:
MSHR contents

In Dram Latency Queue (total = 0): 
DRAM[0]: 16 bks, busW=4 BL=8 CL=12, tRRD=2 tCCD=6, tRCD=12 tRAS=28 tRP=12 tRC=40
n_cmd=455469 n_nop=216953 n_act=46349 n_pre=46333 n_req=72917 n_rd=104170 n_write=41664 bw_util=0.6404
n_activity=445532 dram_eff=0.6547
bk0: 6502a 216392i bk1: 6492a 214429i bk2: 6464a 206583i bk3: 6464a 202149i bk4: 6484a 194935i bk5: 6484a 189340i bk6: 6528a 178980i bk7: 6528a 172188i bk8: 6528a 215551i bk9: 6528a 205643i bk10: 6528a 204087i bk11: 6528a 200061i bk12: 6528a 193825i bk13: 6528a 182591i bk14: 6528a 175770i bk15: 6528a 166256i 
dram_util_bins: 0 0 0 0 0 0 0 0 0 0
dram_eff_bins: 0 0 0 0 0 0 0 0 0 0
mrqq: max=16 avg=14.5003
Memory Partition 1: 
Cache L2_bank_002:
MSHR contents

Cache L2_bank_003:
MSHR contents
MSHR: tag=0x80f20f80, atomic=0 1 entries : 0x7f6470e56670 :  mf: uid=7733847, sid04:w31, part=1, addr=0x80f20f80, load , size=128, unknown  status = IN_PARTITION_DRAM (345050), 

In Dram Latency Queue (total = 0): 
DRAM[1]: 16 bks, busW=4 BL=8 CL=12, tRRD=2 tCCD=6, tRCD=12 tRAS=28 tRP=12 tRC=40
n_cmd=455469 n_nop=216101 n_act=46776 n_pre=46760 n_req=72916 n_rd=104168 n_write=41664 bw_util=0.6404
n_activity=446880 dram_eff=0.6527
bk0: 6500a 214899i bk1: 6492a 212923i bk2: 6464a 203651i bk3: 6464a 199163i bk4: 6484a 196468i bk5: 6484a 190499i bk6: 6528a 180075i bk7: 6528a 172621i bk8: 6528a 216442i bk9: 6528a 205236i bk10: 6528a 206838i bk11: 6528a 199352i bk12: 6528a 191730i bk13: 6528a 182654i bk14: 6528a 173944i bk15: 6528a 164748i 
dram_util_bins: 0 0 0 0 0 0 0 0 0 0
dram_eff_bins: 0 0 0 0 0 0 0 0 0 0
mrqq: max=16 avg=14.3508
Memory Partition 2: 
Cache L2_bank_004:
MSHR contents

Cache L2_bank_005:
MSHR contents

In Dram Latency Queue (total = 0): 
DRAM[2]: 16 bks, busW=4 BL=8 CL=12, tRRD=2 tCCD=6, tRCD=12 tRAS=28 tRP=12 tRC=40
n_cmd=455469 n_nop=216711 n_act=46467 n_pre=46451 n_req=72920 n_rd=104172 n_write=41668 bw_util=0.6404
n_activity=444827 dram_eff=0.6557
bk0: 6500a 217750i bk1: 6492a 210751i bk2: 6464a 205621i bk3: 6464a 196204i bk4: 6484a 194104i bk5: 6488a 189027i bk6: 6528a 179342i bk7: 6528a 170763i bk8: 6528a 210573i bk9: 6528a 204724i bk10: 6528a 201729i bk11: 6528a 202512i bk12: 6528a 193235i bk13: 6528a 184291i bk14: 6528a 172422i bk15: 6528a 166172i 
dram_util_bins: 0 0 0 0 0 0 0 0 0 0
dram_eff_bins: 0 0 0 0 0 0 0 0 0 0
mrqq: max=16 avg=14.7298
Memory Partition 3: 
Cache L2_bank_006:
MSHR contents

Cache L2_bank_007:
MSHR contents

In Dram Latency Queue (total = 0): 
DRAM[3]: 16 bks, busW=4 BL=8 CL=12, tRRD=2 tCCD=6, tRCD=12 tRAS=28 tRP=12 tRC=40
n_cmd=455469 n_nop=215941 n_act=46852 n_pre=46836 n_req=72920 n_rd=104172 n_write=41668 bw_util=0.6404
n_activity=446731 dram_eff=0.6529
bk0: 6500a 214683i bk1: 6492a 209894i bk2: 6464a 206429i bk3: 6464a 196900i bk4: 6484a 195476i bk5: 6488a 184406i bk6: 6528a 177650i bk7: 6528a 168250i bk8: 6528a 212716i bk9: 6528a 205732i bk10: 6528a 204728i bk11: 6528a 196641i bk12: 6528a 192030i bk13: 6528a 182822i bk14: 6528a 176978i bk15: 6528a 164248i 
dram_util_bins: 0 0 0 0 0 0 0 0 0 0
dram_eff_bins: 0 0 0 0 0 0 0 0 0 0
mrqq: max=16 avg=14.3512
Memory Partition 4: 
Cache L2_bank_008:
MSHR contents

Cache L2_bank_009:
MSHR contents

In Dram Latency Queue (total = 0): 
DRAM[4]: 16 bks, busW=4 BL=8 CL=12, tRRD=2 tCCD=6, tRCD=12 tRAS=28 tRP=12 tRC=40
n_cmd=455469 n_nop=216831 n_act=46409 n_pre=46393 n_req=72918 n_rd=104168 n_write=41668 bw_util=0.6404
n_activity=444860 dram_eff=0.6556
bk0: 6496a 216759i bk1: 6492a 212076i bk2: 6464a 206734i bk3: 6464a 196074i bk4: 6484a 194000i bk5: 6488a 187304i bk6: 6528a 178449i bk7: 6528a 168502i bk8: 6528a 211027i bk9: 6528a 203104i bk10: 6528a 203257i bk11: 6528a 197146i bk12: 6528a 191068i bk13: 6528a 181193i bk14: 6528a 174700i bk15: 6528a 166397i 
dram_util_bins: 0 0 0 0 0 0 0 0 0 0
dram_eff_bins: 0 0 0 0 0 0 0 0 0 0
mrqq: max=16 avg=14.8584
Memory Partition 5: 
Cache L2_bank_010:
MSHR contents

Cache L2_bank_011:
MSHR contents

In Dram Latency Queue (total = 0): 
DRAM[5]: 16 bks, busW=4 BL=8 CL=12, tRRD=2 tCCD=6, tRCD=12 tRAS=28 tRP=12 tRC=40
n_cmd=455469 n_nop=215999 n_act=46825 n_pre=46809 n_req=72918 n_rd=104168 n_write=41668 bw_util=0.6404
n_activity=446685 dram_eff=0.653
bk0: 6496a 218226i bk1: 6492a 209903i bk2: 6464a 203832i bk3: 6464a 195680i bk4: 6484a 191712i bk5: 6488a 185761i bk6: 6528a 177449i bk7: 6528a 171670i bk8: 6528a 209702i bk9: 6528a 204775i bk10: 6528a 200043i bk11: 6528a 195605i bk12: 6528a 191611i bk13: 6528a 182497i bk14: 6528a 175136i bk15: 6528a 163795i 
dram_util_bins: 0 0 0 0 0 0 0 0 0 0
dram_eff_bins: 0 0 0 0 0 0 0 0 0 0
mrqq: max=16 avg=14.5922

========= L2 cache stats =========
L2_cache_bank[0]: Access = 26087, Miss = 26045, Miss_rate = 0.998, Pending_hits = 9, Reservation_fails = 23524
L2_cache_bank[1]: Access = 26040, Miss = 26040, Miss_rate = 1.000, Pending_hits = 0, Reservation_fails = 29388
L2_cache_bank[2]: Access = 26072, Miss = 26044, Miss_rate = 0.999, Pending_hits = 6, Reservation_fails = 21368
L2_cache_bank[3]: Access = 26040, Miss = 26040, Miss_rate = 1.000, Pending_hits = 0, Reservation_fails = 25489
L2_cache_bank[4]: Access = 26072, Miss = 26044, Miss_rate = 0.999, Pending_hits = 6, Reservation_fails = 20131
L2_cache_bank[5]: Access = 26042, Miss = 26042, Miss_rate = 1.000, Pending_hits = 0, Reservation_fails = 27480
L2_cache_bank[6]: Access = 26072, Miss = 26044, Miss_rate = 0.999, Pending_hits = 6, Reservation_fails = 22026
L2_cache_bank[7]: Access = 26042, Miss = 26042, Miss_rate = 1.000, Pending_hits = 0, Reservation_fails = 26955
L2_cache_bank[8]: Access = 26042, Miss = 26042, Miss_rate = 1.000, Pending_hits = 0, Reservation_fails = 14567
L2_cache_bank[9]: Access = 26042, Miss = 26042, Miss_rate = 1.000, Pending_hits = 0, Reservation_fails = 23970
L2_cache_bank[10]: Access = 26042, Miss = 26042, Miss_rate = 1.000, Pending_hits = 0, Reservation_fails = 25030
L2_cache_bank[11]: Access = 26042, Miss = 26042, Miss_rate = 1.000, Pending_hits = 0, Reservation_fails = 30428
L2_total_cache_accesses = 312635
L2_total_cache_misses = 312509
L2_total_cache_miss_rate = 0.9996
L2_total_cache_pending_hits = 27
L2_total_cache_reservation_fails = 290356
L2_total_cache_breakdown:
	L2_cache_stats_breakdown[GLOBAL_ACC_R][MISS] = 187500
	L2_cache_stats_breakdown[GLOBAL_ACC_R][RESERVATION_FAIL] = 171307
	L2_cache_stats_breakdown[CONST_ACC_R][HIT] = 11
	L2_cache_stats_breakdown[CONST_ACC_R][HIT_RESERVED] = 3
	L2_cache_stats_breakdown[CONST_ACC_R][MISS] = 1
	L2_cache_stats_breakdown[CONST_ACC_R][RESERVATION_FAIL] = 109
	L2_cache_stats_breakdown[GLOBAL_ACC_W][MISS] = 125000
	L2_cache_stats_breakdown[GLOBAL_ACC_W][RESERVATION_FAIL] = 118248
	L2_cache_stats_breakdown[INST_ACC_R][HIT] = 88
	L2_cache_stats_breakdown[INST_ACC_R][HIT_RESERVED] = 24
	L2_cache_stats_breakdown[INST_ACC_R][MISS] = 8
	L2_cache_stats_breakdown[INST_ACC_R][RESERVATION_FAIL] = 692
L2_cache_data_port_util = 0.000
L2_cache_fill_port_util = 0.302

icnt_total_pkts_mem_to_simt=1063145
icnt_total_pkts_simt_to_mem=812635
LD_mem_lat_dist  0 0 0 0 0 0 0 0 0 0 0 0 0 0 0 0 0 0 0 0 0 0 0 0 0 0 0
ST_mem_lat_dist  0 0 0 0 0 0 0 0 0 0 0 0 0 0 0 0 0 0 0 0 0 0 0 0 0 0 0
----------------------------Interconnect-DETAILS--------------------------------
Class 0:
Packet latency average = 52.7047
	minimum = 6
	maximum = 728
Network latency average = 35.1551
	minimum = 6
	maximum = 610
Slowest packet = 4105
Flit latency average = 26.0601
	minimum = 6
	maximum = 606
Slowest flit = 117749
Fragmentation average = 0.510703
	minimum = 0
	maximum = 451
Injected packet rate average = 0.0671148
	minimum = 0.0585099 (at node 2)
	maximum = 0.0756029 (at node 15)
Accepted packet rate average = 0.0671148
	minimum = 0.0585099 (at node 2)
	maximum = 0.0756029 (at node 15)
Injected flit rate average = 0.201341
	minimum = 0.152084 (at node 2)
	maximum = 0.257181 (at node 15)
Accepted flit rate average= 0.201341
	minimum = 0.196213 (at node 16)
	maximum = 0.211779 (at node 8)
Injected packet length average = 2.99995
Accepted packet length average = 2.99995
Total in-flight flits = 0 (0 measured)
====== Overall Traffic Statistics ======
====== Traffic class 0 ======
Packet latency average = 52.7047 (1 samples)
	minimum = 6 (1 samples)
	maximum = 728 (1 samples)
Network latency average = 35.1551 (1 samples)
	minimum = 6 (1 samples)
	maximum = 610 (1 samples)
Flit latency average = 26.0601 (1 samples)
	minimum = 6 (1 samples)
	maximum = 606 (1 samples)
Fragmentation average = 0.510703 (1 samples)
	minimum = 0 (1 samples)
	maximum = 451 (1 samples)
Injected packet rate average = 0.0671148 (1 samples)
	minimum = 0.0585099 (1 samples)
	maximum = 0.0756029 (1 samples)
Accepted packet rate average = 0.0671148 (1 samples)
	minimum = 0.0585099 (1 samples)
	maximum = 0.0756029 (1 samples)
Injected flit rate average = 0.201341 (1 samples)
	minimum = 0.152084 (1 samples)
	maximum = 0.257181 (1 samples)
Accepted flit rate average = 0.201341 (1 samples)
	minimum = 0.196213 (1 samples)
	maximum = 0.211779 (1 samples)
Injected packet size average = 2.99995 (1 samples)
Accepted packet size average = 2.99995 (1 samples)
Hops average = 1 (1 samples)
----------------------------END-of-Interconnect-DETAILS-------------------------


gpgpu_simulation_time = 0 days, 0 hrs, 15 min, 9 sec (909 sec)
gpgpu_simulation_rate = 215381 (inst/sec)
gpgpu_simulation_rate = 379 (cycle/sec)
GPGPU-Sim: synchronize waiting for inactive GPU simulation
GPGPU-Sim API: Stream Manager State
GPGPU-Sim: detected inactive GPU simulation thread
Options count             : 4000000     
BlackScholesGPU() time    : 907194.625000 msec
Effective memory bandwidth: 0.000044 GB/s
Gigaoptions per second    : 0.000004     
Reading back GPU results...
Checking the results...
...running CPU calculations.
Comparing the results...
L1 norm: 1.729535E-07
Max absolute error: 1.192093E-05
TEST PASSED
Shutting down...
...releasing GPU memory.
...releasing CPU memory.
Shutdown done.
GPGPU-Sim: exit_simulation called
GPGPU-Sim: simulation thread signaled exit

Press ENTER to exit...
