

        *** GPGPU-Sim Simulator Version 3.2.2  [build 0] ***


GPGPU-Sim PTX: simulation mode 0 (can change with PTX_SIM_MODE_FUNC environment variable:
               1=functional simulation only, 0=detailed performance simulator)
GPGPU-Sim: Configuration options:

-network_mode                           1 # Interconnection network mode
-inter_config_file   config_fermi_islip.icnt # Interconnection network config file
-gpgpu_ptx_use_cuobjdump                    1 # Use cuobjdump to extract ptx and sass from binaries
-gpgpu_experimental_lib_support                    0 # Try to extract code from cuda libraries [Broken because of unknown cudaGetExportTable]
-gpgpu_ptx_convert_to_ptxplus                    0 # Convert SASS (native ISA) to ptxplus and run ptxplus
-gpgpu_ptx_force_max_capability                   20 # Force maximum compute capability
-gpgpu_ptx_inst_debug_to_file                    0 # Dump executed instructions' debug information to file
-gpgpu_ptx_inst_debug_file       inst_debug.txt # Executed instructions' debug output file
-gpgpu_ptx_inst_debug_thread_uid                    1 # Thread UID for executed instructions' debug output
-gpgpu_simd_model                       1 # 1 = post-dominator
-gpgpu_shader_core_pipeline              1536:32 # shader core pipeline config, i.e., {<nthread>:<warpsize>}
-gpgpu_tex_cache:l1  4:128:24,L:R:m:N:L,F:128:4,128:2 # per-shader L1 texture cache  (READ-ONLY) config  {<nsets>:<bsize>:<assoc>,<rep>:<wr>:<alloc>:<wr_alloc>,<mshr>:<N>:<merge>,<mq>:<rf>}
-gpgpu_const_cache:l1 64:64:2,L:R:f:N:L,A:2:32,4 # per-shader L1 constant memory cache  (READ-ONLY) config  {<nsets>:<bsize>:<assoc>,<rep>:<wr>:<alloc>:<wr_alloc>,<mshr>:<N>:<merge>,<mq>} 
-gpgpu_cache:il1     4:128:4,L:R:f:N:L,A:2:32,4 # shader L1 instruction cache config  {<nsets>:<bsize>:<assoc>,<rep>:<wr>:<alloc>:<wr_alloc>,<mshr>:<N>:<merge>,<mq>} 
-gpgpu_cache:dl1     32:128:4,L:L:m:N:H,A:32:8,8 # per-shader L1 data cache config  {<nsets>:<bsize>:<assoc>,<rep>:<wr>:<alloc>:<wr_alloc>,<mshr>:<N>:<merge>,<mq> | none}
-gpgpu_cache:dl1PrefL1                 none # per-shader L1 data cache config  {<nsets>:<bsize>:<assoc>,<rep>:<wr>:<alloc>:<wr_alloc>,<mshr>:<N>:<merge>,<mq> | none}
-gpgpu_cache:dl1PreShared                 none # per-shader L1 data cache config  {<nsets>:<bsize>:<assoc>,<rep>:<wr>:<alloc>:<wr_alloc>,<mshr>:<N>:<merge>,<mq> | none}
-gmem_skip_L1D                          0 # global memory access skip L1D cache (implements -Xptxas -dlcm=cg, default=no skip)
-gpgpu_perfect_mem                      0 # enable perfect memory mode (no cache miss)
-n_regfile_gating_group                    4 # group of lanes that should be read/written together)
-gpgpu_clock_gated_reg_file                    0 # enable clock gated reg file for power calculations
-gpgpu_clock_gated_lanes                    0 # enable clock gated lanes for power calculations
-gpgpu_shader_registers                32768 # Number of registers per shader core. Limits number of concurrent CTAs. (default 8192)
-gpgpu_shader_cta                       8 # Maximum number of concurrent CTAs in shader (default 8)
-gpgpu_num_cta_barriers                   16 # Maximum number of named barriers per CTA (default 16)
-gpgpu_n_clusters                      15 # number of processing clusters
-gpgpu_n_cores_per_cluster                    1 # number of simd cores per cluster
-gpgpu_n_cluster_ejection_buffer_size                    8 # number of packets in ejection buffer
-gpgpu_n_ldst_response_buffer_size                    2 # number of response packets in ld/st unit ejection buffer
-gpgpu_shmem_size                   16384 # Size of shared memory per shader core (default 16kB)
-gpgpu_shmem_size                   49152 # Size of shared memory per shader core (default 16kB)
-gpgpu_shmem_size_PrefL1                16384 # Size of shared memory per shader core (default 16kB)
-gpgpu_shmem_size_PrefShared                16384 # Size of shared memory per shader core (default 16kB)
-gpgpu_shmem_num_banks                   32 # Number of banks in the shared memory in each shader core (default 16)
-gpgpu_shmem_limited_broadcast                    0 # Limit shared memory to do one broadcast per cycle (default on)
-gpgpu_shmem_warp_parts                    1 # Number of portions a warp is divided into for shared memory bank conflict check 
-gpgpu_warpdistro_shader                   -1 # Specify which shader core to collect the warp size distribution from
-gpgpu_warp_issue_shader                    0 # Specify which shader core to collect the warp issue distribution from
-gpgpu_local_mem_map                    1 # Mapping from local memory space address to simulated GPU physical address space (default = enabled)
-gpgpu_num_reg_banks                   16 # Number of register banks (default = 8)
-gpgpu_reg_bank_use_warp_id                    0 # Use warp ID in mapping registers to banks (default = off)
-gpgpu_operand_collector_num_units_sp                    6 # number of collector units (default = 4)
-gpgpu_operand_collector_num_units_sfu                    8 # number of collector units (default = 4)
-gpgpu_operand_collector_num_units_mem                    2 # number of collector units (default = 2)
-gpgpu_operand_collector_num_units_gen                    0 # number of collector units (default = 0)
-gpgpu_operand_collector_num_in_ports_sp                    2 # number of collector unit in ports (default = 1)
-gpgpu_operand_collector_num_in_ports_sfu                    1 # number of collector unit in ports (default = 1)
-gpgpu_operand_collector_num_in_ports_mem                    1 # number of collector unit in ports (default = 1)
-gpgpu_operand_collector_num_in_ports_gen                    0 # number of collector unit in ports (default = 0)
-gpgpu_operand_collector_num_out_ports_sp                    2 # number of collector unit in ports (default = 1)
-gpgpu_operand_collector_num_out_ports_sfu                    1 # number of collector unit in ports (default = 1)
-gpgpu_operand_collector_num_out_ports_mem                    1 # number of collector unit in ports (default = 1)
-gpgpu_operand_collector_num_out_ports_gen                    0 # number of collector unit in ports (default = 0)
-gpgpu_coalesce_arch                   13 # Coalescing arch (default = 13, anything else is off for now)
-gpgpu_num_sched_per_core                    2 # Number of warp schedulers per core
-gpgpu_max_insn_issue_per_warp                    1 # Max number of instructions that can be issued per warp in one cycle by scheduler
-gpgpu_simt_core_sim_order                    1 # Select the simulation order of cores in a cluster (0=Fix, 1=Round-Robin)
-gpgpu_pipeline_widths        2,1,1,2,1,1,2 # Pipeline widths ID_OC_SP,ID_OC_SFU,ID_OC_MEM,OC_EX_SP,OC_EX_SFU,OC_EX_MEM,EX_WB
-gpgpu_num_sp_units                     2 # Number of SP units (default=1)
-gpgpu_num_sfu_units                    1 # Number of SF units (default=1)
-gpgpu_num_mem_units                    1 # Number if ldst units (default=1) WARNING: not hooked up to anything
-gpgpu_scheduler                      gto # Scheduler configuration: < lrr | gto | two_level_active > If two_level_active:<num_active_warps>:<inner_prioritization>:<outer_prioritization>For complete list of prioritization values see shader.h enum scheduler_prioritization_typeDefault: gto
-gpgpu_dram_scheduler                    1 # 0 = fifo, 1 = FR-FCFS (defaul)
-gpgpu_dram_partition_queues              8:8:8:8 # i2$:$2d:d2$:$2i
-l2_ideal                               0 # Use a ideal L2 cache that always hit
-gpgpu_cache:dl2     64:128:8,L:B:m:W:L,A:32:4,4:0,32 # unified banked L2 data cache config  {<nsets>:<bsize>:<assoc>,<rep>:<wr>:<alloc>:<wr_alloc>,<mshr>:<N>:<merge>,<mq>}
-gpgpu_cache:dl2_texture_only                    0 # L2 cache used for texture only
-gpgpu_n_mem                            6 # number of memory modules (e.g. memory controllers) in gpu
-gpgpu_n_sub_partition_per_mchannel                    2 # number of memory subpartition in each memory module
-gpgpu_n_mem_per_ctrlr                    2 # number of memory chips per memory controller
-gpgpu_memlatency_stat                   14 # track and display latency statistics 0x2 enables MC, 0x4 enables queue logs
-gpgpu_frfcfs_dram_sched_queue_size                   16 # 0 = unlimited (default); # entries per chip
-gpgpu_dram_return_queue_size                  116 # 0 = unlimited (default); # entries per chip
-gpgpu_dram_buswidth                    2 # default = 4 bytes (8 bytes per cycle at DDR)
-gpgpu_dram_burst_length                    8 # Burst length of each DRAM request (default = 4 data bus cycle)
-dram_data_command_freq_ratio                    4 # Frequency ratio between DRAM data bus and command bus (default = 2 times, i.e. DDR)
-gpgpu_dram_timing_opt nbk=16:CCD=2:RRD=6:RCD=12:RAS=28:RP=12:RC=40: CL=12:WL=4:CDLR=5:WR=12:nbkgrp=4:CCDL=3:RTPL=2 # DRAM timing parameters = {nbk:tCCD:tRRD:tRCD:tRAS:tRP:tRC:CL:WL:tCDLR:tWR:nbkgrp:tCCDL:tRTPL}
-rop_latency                          120 # ROP queue latency (default 85)
-dram_latency                         100 # DRAM latency (default 30)
-gpgpu_mem_addr_mapping dramid@8;00000000.00000000.00000000.00000000.0000RRRR.RRRRRRRR.BBBCCCCB.CCSSSSSS # mapping memory address to dram model {dramid@<start bit>;<memory address map>}
-gpgpu_mem_addr_test                    0 # run sweep test to check address mapping for aliased address
-gpgpu_mem_address_mask                    1 # 0 = old addressing mask, 1 = new addressing mask, 2 = new add. mask + flipped bank sel and chip sel bits
-gpuwattch_xml_file  gpuwattch_gtx480.xml # GPUWattch XML file
-power_simulation_enabled                    1 # Turn on power simulator (1=On, 0=Off)
-power_per_cycle_dump                    0 # Dump detailed power output each cycle
-power_trace_enabled                    0 # produce a file for the power trace (1=On, 0=Off)
-power_trace_zlevel                     6 # Compression level of the power trace output log (0=no comp, 9=highest)
-steady_power_levels_enabled                    0 # produce a file for the steady power levels (1=On, 0=Off)
-steady_state_definition                  8:4 # allowed deviation:number of samples
-gpgpu_max_cycle                        0 # terminates gpu simulation early (0 = no limit)
-gpgpu_max_insn                         0 # terminates gpu simulation early (0 = no limit)
-gpgpu_max_cta                          0 # terminates gpu simulation early (0 = no limit)
-gpgpu_runtime_stat                   500 # display runtime statistics such as dram utilization {<freq>:<flag>}
-liveness_message_freq                    1 # Minimum number of seconds between simulation liveness messages (0 = always print)
-gpgpu_flush_l1_cache                    0 # Flush L1 cache at the end of each kernel call
-gpgpu_flush_l2_cache                    0 # Flush L2 cache at the end of each kernel call
-gpgpu_deadlock_detect                    1 # Stop the simulation at deadlock (1=on (default), 0=off)
-gpgpu_ptx_instruction_classification                    0 # if enabled will classify ptx instruction types per kernel (Max 255 kernels now)
-gpgpu_ptx_sim_mode                     0 # Select between Performance (default) or Functional simulation (1)
-gpgpu_clock_domains 700.0:700.0:700.0:924.0 # Clock Domain Frequencies in MhZ {<Core Clock>:<ICNT Clock>:<L2 Clock>:<DRAM Clock>}
-gpgpu_max_concurrent_kernel                    8 # maximum kernels that can run concurrently on GPU
-gpgpu_cflog_interval                    0 # Interval between each snapshot in control flow logger
-visualizer_enabled                     0 # Turn on visualizer output (1=On, 0=Off)
-visualizer_outputfile                 NULL # Specifies the output log file for visualizer
-visualizer_zlevel                      6 # Compression level of the visualizer output log (0=no comp, 9=highest)
-trace_enabled                          0 # Turn on traces
-trace_components                    none # comma seperated list of traces to enable. Complete list found in trace_streams.tup. Default none
-trace_sampling_core                    0 # The core which is printed using CORE_DPRINTF. Default 0
-trace_sampling_memory_partition                   -1 # The memory partition which is printed using MEMPART_DPRINTF. Default -1 (i.e. all)
-enable_ptx_file_line_stats                    1 # Turn on PTX source line statistic profiling. (1 = On)
-ptx_line_stats_filename gpgpu_inst_stats.txt # Output file for PTX source line statistics.
-save_embedded_ptx                      0 # saves ptx files embedded in binary as <n>.ptx
-keep                                   0 # keep intermediate files created by GPGPU-Sim when interfacing with external programs
-gpgpu_ptx_save_converted_ptxplus                    0 # Saved converted ptxplus to a file
-ptx_opcode_latency_int         4,13,4,5,145 # Opcode latencies for integers <ADD,MAX,MUL,MAD,DIV>Default 1,1,19,25,145
-ptx_opcode_latency_fp          4,13,4,5,39 # Opcode latencies for single precision floating points <ADD,MAX,MUL,MAD,DIV>Default 1,1,1,1,30
-ptx_opcode_latency_dp         8,19,8,8,330 # Opcode latencies for double precision floating points <ADD,MAX,MUL,MAD,DIV>Default 8,8,8,8,335
-ptx_opcode_initiation_int            1,2,2,1,8 # Opcode initiation intervals for integers <ADD,MAX,MUL,MAD,DIV>Default 1,1,4,4,32
-ptx_opcode_initiation_fp            1,2,1,1,4 # Opcode initiation intervals for single precision floating points <ADD,MAX,MUL,MAD,DIV>Default 1,1,1,1,5
-ptx_opcode_initiation_dp         8,16,8,8,130 # Opcode initiation intervals for double precision floating points <ADD,MAX,MUL,MAD,DIV>Default 8,8,8,8,130
DRAM Timing Options:
nbk                                    16 # number of banks
CCD                                     2 # column to column delay
RRD                                     6 # minimal delay between activation of rows in different banks
RCD                                    12 # row to column delay
RAS                                    28 # time needed to activate row
RP                                     12 # time needed to precharge (deactivate) row
RC                                     40 # row cycle time
CDLR                                    5 # switching from write to read (changes tWTR)
WR                                     12 # last data-in to row precharge
CL                                     12 # CAS latency
WL                                      4 # Write latency
nbkgrp                                  4 # number of bank groups
CCDL                                    3 # column to column delay between accesses to different bank groups
RTPL                                    2 # read to precharge delay between accesses to different bank groups
Total number of memory sub partition = 12
addr_dec_mask[CHIP]  = 0000000000000000 	high:64 low:0
addr_dec_mask[BK]    = 000000000000e100 	high:16 low:8
addr_dec_mask[ROW]   = 000000000fff0000 	high:28 low:16
addr_dec_mask[COL]   = 0000000000001eff 	high:13 low:0
addr_dec_mask[BURST] = 000000000000003f 	high:6 low:0
sub_partition_id_mask = 0000000000000100
GPGPU-Sim uArch: clock freqs: 700000000.000000:700000000.000000:700000000.000000:924000000.000000
GPGPU-Sim uArch: clock periods: 0.00000000142857142857:0.00000000142857142857:0.00000000142857142857:0.00000000108225108225
*** Initializing Memory Statistics ***
GPGPU-Sim uArch: interconnect node map (shaderID+MemID to icntID)
GPGPU-Sim uArch: Memory nodes ID start from index: 15
GPGPU-Sim uArch:    0   1   2   3   4
GPGPU-Sim uArch:    5   6   7   8   9
GPGPU-Sim uArch:   10  11  12  13  14
GPGPU-Sim uArch:   15  16  17  18  19
GPGPU-Sim uArch:   20  21  22  23  24
GPGPU-Sim uArch:   25  26
GPGPU-Sim uArch: interconnect node reverse map (icntID to shaderID+MemID)
GPGPU-Sim uArch: Memory nodes start from ID: 15
GPGPU-Sim uArch:    0   1   2   3   4
GPGPU-Sim uArch:    5   6   7   8   9
GPGPU-Sim uArch:   10  11  12  13  14
GPGPU-Sim uArch:   15  16  17  18  19
GPGPU-Sim uArch:   20  21  22  23  24
GPGPU-Sim uArch:   25  26
2a552cef618c3eed1202856b15bdbc61  /home/scratch/adwait/applications/benchmarks/CUDA/RAY/gpgpu_ptx_sim__RAY
GPGPU-Sim uArch: performance model initialization complete.
GPGPU-Sim PTX: __cudaRegisterFatBinary, fat_cubin_handle = 1, filename=rayTracing.cu
self exe links to: /home/scratch/adwait/applications/benchmarks/CUDA/RAY/gpgpu_ptx_sim__RAY
Running md5sum using "md5sum /home/scratch/adwait/applications/benchmarks/CUDA/RAY/gpgpu_ptx_sim__RAY "
Running cuobjdump using "$CUDA_INSTALL_PATH/bin/cuobjdump -ptx -elf -sass /home/scratch/adwait/applications/benchmarks/CUDA/RAY/gpgpu_ptx_sim__RAY > _cuobjdump_complete_output_ciddj0"
Parsing file _cuobjdump_complete_output_ciddj0
######### cuobjdump parser ########
## Adding new section ELF
Adding arch: sm_20
Adding identifier: rayTracing.cu
## Adding new section PTX
Adding ptx filename: _cuobjdump_1.ptx
Adding arch: sm_20
Adding identifier: rayTracing.cu
Done parsing!!!
GPGPU-Sim PTX: __cudaRegisterFunction _Z6renderPjP4Nodejjff : hostFun 0x0x40d033, fat_cubin_handle = 1
GPGPU-Sim PTX: allocating stack frame region for .param "__cudaretf__Zmi6float3S_" from 0x0 to 0xc
GPGPU-Sim PTX: allocating stack frame region for .param "__cudaparmf1__Zmi6float3S_" from 0xc to 0x18
GPGPU-Sim PTX: allocating stack frame region for .param "__cudaparmf2__Zmi6float3S_" from 0x18 to 0x24
GPGPU-Sim PTX: allocating stack frame region for .param "__cudaretf__Z9normalize6float3" from 0x0 to 0xc
GPGPU-Sim PTX: allocating stack frame region for .param "__cudaparmf1__Z9normalize6float3" from 0xc to 0x18
GPGPU-Sim PTX: allocating stack frame region for .param "__cudaretf__Z18intersectionSphere5Rayon6float3f" from 0x0 to 0x4
GPGPU-Sim PTX: allocating stack frame region for .param "__cudaparmf1__Z18intersectionSphere5Rayon6float3f" from 0x4 to 0x1c
GPGPU-Sim PTX: allocating stack frame region for .param "__cudaparmf2__Z18intersectionSphere5Rayon6float3f" from 0x1c to 0x28
GPGPU-Sim PTX: allocating stack frame region for .param "__cudaparmf3__Z18intersectionSphere5Rayon6float3f" from 0x28 to 0x2c
GPGPU-Sim PTX: allocating stack frame region for .param "__cudaretf__Z16intersectionPlan5Rayon6float3S0_" from 0x0 to 0x4
GPGPU-Sim PTX: allocating stack frame region for .param "__cudaparmf1__Z16intersectionPlan5Rayon6float3S0_" from 0x4 to 0x1c
GPGPU-Sim PTX: allocating stack frame region for .param "__cudaparmf2__Z16intersectionPlan5Rayon6float3S0_" from 0x1c to 0x28
GPGPU-Sim PTX: allocating stack frame region for .param "__cudaparmf3__Z16intersectionPlan5Rayon6float3S0_" from 0x28 to 0x34
GPGPU-Sim PTX: allocating stack frame region for .param "__cudaretf__Z10getNormale6float3S_" from 0x0 to 0xc
GPGPU-Sim PTX: allocating stack frame region for .param "__cudaparmf1__Z10getNormale6float3S_" from 0xc to 0x18
GPGPU-Sim PTX: allocating stack frame region for .param "__cudaparmf2__Z10getNormale6float3S_" from 0x18 to 0x24
GPGPU-Sim PTX: allocating stack frame region for .param "__cudaretf__Z11getNormaleP6float3" from 0x0 to 0xc
GPGPU-Sim PTX: allocating stack frame region for .param "__cudaparmf1__Z11getNormaleP6float3" from 0xc to 0x18
GPGPU-Sim PTX: allocating stack frame region for .param "__cudaretf__Z14rgbaFloatToInt6float4" from 0x0 to 0x4
GPGPU-Sim PTX: allocating stack frame region for .param "__cudaparmf1__Z14rgbaFloatToInt6float4" from 0x4 to 0x14
GPGPU-Sim PTX: allocating stack frame region for .param "__cudaretf__Z12notShadowRayP4Node6float3S1_f" from 0x0 to 0x4
GPGPU-Sim PTX: allocating stack frame region for .param "__cudaparmf1__Z12notShadowRayP4Node6float3S1_f" from 0x4 to 0xc
GPGPU-Sim PTX: allocating stack frame region for .param "__cudaparmf2__Z12notShadowRayP4Node6float3S1_f" from 0xc to 0x18
GPGPU-Sim PTX: allocating stack frame region for .param "__cudaparmf3__Z12notShadowRayP4Node6float3S1_f" from 0x18 to 0x24
GPGPU-Sim PTX: allocating stack frame region for .param "__cudaparmf4__Z12notShadowRayP4Node6float3S1_f" from 0x24 to 0x28
GPGPU-Sim PTX: allocating stack frame region for .param "__cudaretf__Z15float2int_pow20f" from 0x0 to 0x4
GPGPU-Sim PTX: allocating stack frame region for .param "__cudaparmf1__Z15float2int_pow20f" from 0x4 to 0x8
GPGPU-Sim PTX: allocating stack frame region for .param "__cudaretf__Z15float2int_pow50f" from 0x0 to 0x4
GPGPU-Sim PTX: allocating stack frame region for .param "__cudaparmf1__Z15float2int_pow50f" from 0x4 to 0x8
GPGPU-Sim PTX: allocating stack frame region for .param "__cudaparmf1__ZN4dim3C1Ejjj" from 0x0 to 0x8
GPGPU-Sim PTX: allocating stack frame region for .param "__cudaparmf2__ZN4dim3C1Ejjj" from 0x8 to 0xc
GPGPU-Sim PTX: allocating stack frame region for .param "__cudaparmf3__ZN4dim3C1Ejjj" from 0xc to 0x10
GPGPU-Sim PTX: allocating stack frame region for .param "__cudaparmf4__ZN4dim3C1Ejjj" from 0x10 to 0x14
GPGPU-Sim PTX: instruction assembly for function '_Zmi6float3S_'...   done.
GPGPU-Sim PTX: finding reconvergence points for '_Zmi6float3S_'...
GPGPU-Sim PTX: Finding dominators for '_Zmi6float3S_'...
GPGPU-Sim PTX: Finding immediate dominators for '_Zmi6float3S_'...
GPGPU-Sim PTX: Finding postdominators for '_Zmi6float3S_'...
GPGPU-Sim PTX: Finding immediate postdominators for '_Zmi6float3S_'...
GPGPU-Sim PTX: pre-decoding instructions for '_Zmi6float3S_'...
GPGPU-Sim PTX: reconvergence points for _Zmi6float3S_...
GPGPU-Sim PTX: ... end of reconvergence points for _Zmi6float3S_
GPGPU-Sim PTX: ... done pre-decoding instructions for '_Zmi6float3S_'.
GPGPU-Sim PTX: instruction assembly for function '_Z9normalize6float3'...   done.
GPGPU-Sim PTX: finding reconvergence points for '_Z9normalize6float3'...
GPGPU-Sim PTX: Finding dominators for '_Z9normalize6float3'...
GPGPU-Sim PTX: Finding immediate dominators for '_Z9normalize6float3'...
GPGPU-Sim PTX: Finding postdominators for '_Z9normalize6float3'...
GPGPU-Sim PTX: Finding immediate postdominators for '_Z9normalize6float3'...
GPGPU-Sim PTX: pre-decoding instructions for '_Z9normalize6float3'...
GPGPU-Sim PTX: reconvergence points for _Z9normalize6float3...
GPGPU-Sim PTX: ... end of reconvergence points for _Z9normalize6float3
GPGPU-Sim PTX: ... done pre-decoding instructions for '_Z9normalize6float3'.
GPGPU-Sim PTX: instruction assembly for function '_Z18intersectionSphere5Rayon6float3f'...   done.
GPGPU-Sim PTX: finding reconvergence points for '_Z18intersectionSphere5Rayon6float3f'...
GPGPU-Sim PTX: Finding dominators for '_Z18intersectionSphere5Rayon6float3f'...
GPGPU-Sim PTX: Finding immediate dominators for '_Z18intersectionSphere5Rayon6float3f'...
GPGPU-Sim PTX: Finding postdominators for '_Z18intersectionSphere5Rayon6float3f'...
GPGPU-Sim PTX: Finding immediate postdominators for '_Z18intersectionSphere5Rayon6float3f'...
GPGPU-Sim PTX: pre-decoding instructions for '_Z18intersectionSphere5Rayon6float3f'...
GPGPU-Sim PTX: reconvergence points for _Z18intersectionSphere5Rayon6float3f...
GPGPU-Sim PTX:  1 (potential) branch divergence @  PC=0x250 (_1.ptx:173) @%p2 bra $Lt_2_3074;
GPGPU-Sim PTX:    immediate post dominator      @  PC=0x2c0 (_1.ptx:193) mov.f32 %f39, %f32;
GPGPU-Sim PTX:  2 (potential) branch divergence @  PC=0x260 (_1.ptx:175) bra.uni $Lt_2_2818;
GPGPU-Sim PTX:    immediate post dominator      @  PC=0x2c0 (_1.ptx:193) mov.f32 %f39, %f32;
GPGPU-Sim PTX:  3 (potential) branch divergence @  PC=0x280 (_1.ptx:180) @!%p3 bra $Lt_2_3586;
GPGPU-Sim PTX:    immediate post dominator      @  PC=0x2c0 (_1.ptx:193) mov.f32 %f39, %f32;
GPGPU-Sim PTX:  4 (potential) branch divergence @  PC=0x290 (_1.ptx:182) bra.uni $Lt_2_3330;
GPGPU-Sim PTX:    immediate post dominator      @  PC=0x2c0 (_1.ptx:193) mov.f32 %f39, %f32;
GPGPU-Sim PTX: ... end of reconvergence points for _Z18intersectionSphere5Rayon6float3f
GPGPU-Sim PTX: ... done pre-decoding instructions for '_Z18intersectionSphere5Rayon6float3f'.
GPGPU-Sim PTX: instruction assembly for function '_Z16intersectionPlan5Rayon6float3S0_'...   done.
GPGPU-Sim PTX: finding reconvergence points for '_Z16intersectionPlan5Rayon6float3S0_'...
GPGPU-Sim PTX: Finding dominators for '_Z16intersectionPlan5Rayon6float3S0_'...
GPGPU-Sim PTX: Finding immediate dominators for '_Z16intersectionPlan5Rayon6float3S0_'...
GPGPU-Sim PTX: Finding postdominators for '_Z16intersectionPlan5Rayon6float3S0_'...
GPGPU-Sim PTX: Finding immediate postdominators for '_Z16intersectionPlan5Rayon6float3S0_'...
GPGPU-Sim PTX: pre-decoding instructions for '_Z16intersectionPlan5Rayon6float3S0_'...
GPGPU-Sim PTX: reconvergence points for _Z16intersectionPlan5Rayon6float3S0_...
GPGPU-Sim PTX:  1 (potential) branch divergence @  PC=0x320 (_1.ptx:214) @!%p1 bra $Lt_3_2050;
GPGPU-Sim PTX:    immediate post dominator      @  PC=0x368 (_1.ptx:227) mov.f32 %f14, %f9;
GPGPU-Sim PTX:  2 (potential) branch divergence @  PC=0x330 (_1.ptx:216) bra.uni $Lt_3_1794;
GPGPU-Sim PTX:    immediate post dominator      @  PC=0x368 (_1.ptx:227) mov.f32 %f14, %f9;
GPGPU-Sim PTX: ... end of reconvergence points for _Z16intersectionPlan5Rayon6float3S0_
GPGPU-Sim PTX: ... done pre-decoding instructions for '_Z16intersectionPlan5Rayon6float3S0_'.
GPGPU-Sim PTX: instruction assembly for function '_Z10getNormale6float3S_'...   done.
GPGPU-Sim PTX: finding reconvergence points for '_Z10getNormale6float3S_'...
GPGPU-Sim PTX: Finding dominators for '_Z10getNormale6float3S_'...
GPGPU-Sim PTX: Finding immediate dominators for '_Z10getNormale6float3S_'...
GPGPU-Sim PTX: Finding postdominators for '_Z10getNormale6float3S_'...
GPGPU-Sim PTX: Finding immediate postdominators for '_Z10getNormale6float3S_'...
GPGPU-Sim PTX: pre-decoding instructions for '_Z10getNormale6float3S_'...
GPGPU-Sim PTX: reconvergence points for _Z10getNormale6float3S_...
GPGPU-Sim PTX: ... end of reconvergence points for _Z10getNormale6float3S_
GPGPU-Sim PTX: ... done pre-decoding instructions for '_Z10getNormale6float3S_'.
GPGPU-Sim PTX: instruction assembly for function '_Z11getNormaleP6float3'...   done.
GPGPU-Sim PTX: finding reconvergence points for '_Z11getNormaleP6float3'...
GPGPU-Sim PTX: Finding dominators for '_Z11getNormaleP6float3'...
GPGPU-Sim PTX: Finding immediate dominators for '_Z11getNormaleP6float3'...
GPGPU-Sim PTX: Finding postdominators for '_Z11getNormaleP6float3'...
GPGPU-Sim PTX: Finding immediate postdominators for '_Z11getNormaleP6float3'...
GPGPU-Sim PTX: pre-decoding instructions for '_Z11getNormaleP6float3'...
GPGPU-Sim PTX: reconvergence points for _Z11getNormaleP6float3...
GPGPU-Sim PTX: ... end of reconvergence points for _Z11getNormaleP6float3
GPGPU-Sim PTX: ... done pre-decoding instructions for '_Z11getNormaleP6float3'.
GPGPU-Sim PTX: instruction assembly for function '_Z14rgbaFloatToInt6float4'...   done.
GPGPU-Sim PTX: finding reconvergence points for '_Z14rgbaFloatToInt6float4'...
GPGPU-Sim PTX: Finding dominators for '_Z14rgbaFloatToInt6float4'...
GPGPU-Sim PTX: Finding immediate dominators for '_Z14rgbaFloatToInt6float4'...
GPGPU-Sim PTX: Finding postdominators for '_Z14rgbaFloatToInt6float4'...
GPGPU-Sim PTX: Finding immediate postdominators for '_Z14rgbaFloatToInt6float4'...
GPGPU-Sim PTX: pre-decoding instructions for '_Z14rgbaFloatToInt6float4'...
GPGPU-Sim PTX: reconvergence points for _Z14rgbaFloatToInt6float4...
GPGPU-Sim PTX: ... end of reconvergence points for _Z14rgbaFloatToInt6float4
GPGPU-Sim PTX: ... done pre-decoding instructions for '_Z14rgbaFloatToInt6float4'.
GPGPU-Sim PTX: allocating global region for "cnode" from 0x100 to 0x1a0 (global memory space)
GPGPU-Sim PTX: instruction assembly for function '_Z12notShadowRayP4Node6float3S1_f'...   done.
GPGPU-Sim PTX: finding reconvergence points for '_Z12notShadowRayP4Node6float3S1_f'...
GPGPU-Sim PTX: Finding dominators for '_Z12notShadowRayP4Node6float3S1_f'...
GPGPU-Sim PTX: Finding immediate dominators for '_Z12notShadowRayP4Node6float3S1_f'...
GPGPU-Sim PTX: Finding postdominators for '_Z12notShadowRayP4Node6float3S1_f'...
GPGPU-Sim PTX: Finding immediate postdominators for '_Z12notShadowRayP4Node6float3S1_f'...
GPGPU-Sim PTX: pre-decoding instructions for '_Z12notShadowRayP4Node6float3S1_f'...
GPGPU-Sim PTX: reconvergence points for _Z12notShadowRayP4Node6float3S1_f...
GPGPU-Sim PTX:  1 (potential) branch divergence @  PC=0x638 (_1.ptx:364) @%p1 bra $Lt_7_8450;
GPGPU-Sim PTX:    immediate post dominator      @  PC=0x828 (_1.ptx:441) mov.f32 %f58, 0f00000000;    // 0
GPGPU-Sim PTX:  2 (potential) branch divergence @  PC=0x658 (_1.ptx:369) @!%p2 bra $Lt_7_8962;
GPGPU-Sim PTX:    immediate post dominator      @  PC=0x6b8 (_1.ptx:385) mov.f32 %f28, %f20;
GPGPU-Sim PTX:  3 (potential) branch divergence @  PC=0x668 (_1.ptx:371) bra.uni $Lt_7_8706;
GPGPU-Sim PTX:    immediate post dominator      @  PC=0x6b8 (_1.ptx:385) mov.f32 %f28, %f20;
GPGPU-Sim PTX:  4 (potential) branch divergence @  PC=0x6c0 (_1.ptx:386) bra.uni $Lt_7_8194;
GPGPU-Sim PTX:    immediate post dominator      @  PC=0x828 (_1.ptx:441) mov.f32 %f58, 0f00000000;    // 0
GPGPU-Sim PTX:  5 (potential) branch divergence @  PC=0x7b0 (_1.ptx:418) @%p5 bra $Lt_7_9474;
GPGPU-Sim PTX:    immediate post dominator      @  PC=0x820 (_1.ptx:438) mov.f32 %f28, %f51;
GPGPU-Sim PTX:  6 (potential) branch divergence @  PC=0x7c0 (_1.ptx:420) bra.uni $Lt_7_9730;
GPGPU-Sim PTX:    immediate post dominator      @  PC=0x820 (_1.ptx:438) mov.f32 %f28, %f51;
GPGPU-Sim PTX:  7 (potential) branch divergence @  PC=0x7e0 (_1.ptx:425) @!%p6 bra $Lt_7_9986;
GPGPU-Sim PTX:    immediate post dominator      @  PC=0x820 (_1.ptx:438) mov.f32 %f28, %f51;
GPGPU-Sim PTX:  8 (potential) branch divergence @  PC=0x7f0 (_1.ptx:427) bra.uni $Lt_7_9730;
GPGPU-Sim PTX:    immediate post dominator      @  PC=0x820 (_1.ptx:438) mov.f32 %f28, %f51;
GPGPU-Sim PTX:  9 (potential) branch divergence @  PC=0x838 (_1.ptx:443) @!%p7 bra $Lt_7_10242;
GPGPU-Sim PTX:    immediate post dominator      @  PC=0x8e8 (_1.ptx:468) add.s32 %r1, %r1, 1;
GPGPU-Sim PTX: 10 (potential) branch divergence @  PC=0x8d8 (_1.ptx:463) @!%p8 bra $Lt_7_10242;
GPGPU-Sim PTX:    immediate post dominator      @  PC=0x8e8 (_1.ptx:468) add.s32 %r1, %r1, 1;
GPGPU-Sim PTX: 11 (potential) branch divergence @  PC=0x908 (_1.ptx:472) @%p9 bra $Lt_7_10754;
GPGPU-Sim PTX:    immediate post dominator      @  PC=0x960 (_1.ptx:486) selp.s32 %r10, 1, 0, %p11;
GPGPU-Sim PTX: 12 (potential) branch divergence @  PC=0x930 (_1.ptx:477) @%p10 bra $L_7_7170;
GPGPU-Sim PTX:    immediate post dominator      @  PC=0x960 (_1.ptx:486) selp.s32 %r10, 1, 0, %p11;
GPGPU-Sim PTX: 13 (potential) branch divergence @  PC=0x938 (_1.ptx:478) bra.uni $L_7_7938;
GPGPU-Sim PTX:    immediate post dominator      @  PC=0x960 (_1.ptx:486) selp.s32 %r10, 1, 0, %p11;
GPGPU-Sim PTX: ... end of reconvergence points for _Z12notShadowRayP4Node6float3S1_f
GPGPU-Sim PTX: ... done pre-decoding instructions for '_Z12notShadowRayP4Node6float3S1_f'.
GPGPU-Sim PTX: instruction assembly for function '_Z15float2int_pow20f'...   done.
GPGPU-Sim PTX: finding reconvergence points for '_Z15float2int_pow20f'...
GPGPU-Sim PTX: Finding dominators for '_Z15float2int_pow20f'...
GPGPU-Sim PTX: Finding immediate dominators for '_Z15float2int_pow20f'...
GPGPU-Sim PTX: Finding postdominators for '_Z15float2int_pow20f'...
GPGPU-Sim PTX: Finding immediate postdominators for '_Z15float2int_pow20f'...
GPGPU-Sim PTX: pre-decoding instructions for '_Z15float2int_pow20f'...
GPGPU-Sim PTX: reconvergence points for _Z15float2int_pow20f...
GPGPU-Sim PTX: ... end of reconvergence points for _Z15float2int_pow20f
GPGPU-Sim PTX: ... done pre-decoding instructions for '_Z15float2int_pow20f'.
GPGPU-Sim PTX: instruction assembly for function '_Z15float2int_pow50f'...   done.
GPGPU-Sim PTX: finding reconvergence points for '_Z15float2int_pow50f'...
GPGPU-Sim PTX: Finding dominators for '_Z15float2int_pow50f'...
GPGPU-Sim PTX: Finding immediate dominators for '_Z15float2int_pow50f'...
GPGPU-Sim PTX: Finding postdominators for '_Z15float2int_pow50f'...
GPGPU-Sim PTX: Finding immediate postdominators for '_Z15float2int_pow50f'...
GPGPU-Sim PTX: pre-decoding instructions for '_Z15float2int_pow50f'...
GPGPU-Sim PTX: reconvergence points for _Z15float2int_pow50f...
GPGPU-Sim PTX: ... end of reconvergence points for _Z15float2int_pow50f
GPGPU-Sim PTX: ... done pre-decoding instructions for '_Z15float2int_pow50f'.
GPGPU-Sim PTX: allocating constant region for "MView" from 0x200 to 0x230 (global memory space) 1
GPGPU-Sim PTX: allocating stack frame region for .local "__cuda___cuda_local_var_36206_9_non_const_pile_32240" from 0x0 to 0x50
GPGPU-Sim PTX: instruction assembly for function '_Z6renderPjP4Nodejjff'...   done.
GPGPU-Sim PTX: finding reconvergence points for '_Z6renderPjP4Nodejjff'...
GPGPU-Sim PTX: Finding dominators for '_Z6renderPjP4Nodejjff'...
GPGPU-Sim PTX: Finding immediate dominators for '_Z6renderPjP4Nodejjff'...
GPGPU-Sim PTX: Finding postdominators for '_Z6renderPjP4Nodejjff'...
GPGPU-Sim PTX: Finding immediate postdominators for '_Z6renderPjP4Nodejjff'...
GPGPU-Sim PTX: pre-decoding instructions for '_Z6renderPjP4Nodejjff'...
GPGPU-Sim PTX: reconvergence points for _Z6renderPjP4Nodejjff...
GPGPU-Sim PTX:  1 (potential) branch divergence @  PC=0xdb0 (_1.ptx:663) @%p1 bra $Lt_10_44034;
GPGPU-Sim PTX:    immediate post dominator      @  PC=0x2370 (_1.ptx:1495) exit;
GPGPU-Sim PTX:  2 (potential) branch divergence @  PC=0x1028 (_1.ptx:751) @%p2 bra $Lt_10_45570;
GPGPU-Sim PTX:    immediate post dominator      @  PC=0x11b8 (_1.ptx:815) mov.f32 %f108, 0f00000000;   // 0
GPGPU-Sim PTX:  3 (potential) branch divergence @  PC=0x1048 (_1.ptx:756) @!%p3 bra $Lt_10_46082;
GPGPU-Sim PTX:    immediate post dominator      @  PC=0x1090 (_1.ptx:769) mov.f32 %f87, %f82;
GPGPU-Sim PTX:  4 (potential) branch divergence @  PC=0x1058 (_1.ptx:758) bra.uni $Lt_10_45826;
GPGPU-Sim PTX:    immediate post dominator      @  PC=0x1090 (_1.ptx:769) mov.f32 %f87, %f82;
GPGPU-Sim PTX:  5 (potential) branch divergence @  PC=0x1098 (_1.ptx:770) bra.uni $Lt_10_45314;
GPGPU-Sim PTX:    immediate post dominator      @  PC=0x11b8 (_1.ptx:815) mov.f32 %f108, 0f00000000;   // 0
GPGPU-Sim PTX:  6 (potential) branch divergence @  PC=0x1140 (_1.ptx:793) @%p6 bra $Lt_10_46594;
GPGPU-Sim PTX:    immediate post dominator      @  PC=0x11b0 (_1.ptx:813) mov.f32 %f87, %f101;
GPGPU-Sim PTX:  7 (potential) branch divergence @  PC=0x1150 (_1.ptx:795) bra.uni $Lt_10_46850;
GPGPU-Sim PTX:    immediate post dominator      @  PC=0x11b0 (_1.ptx:813) mov.f32 %f87, %f101;
GPGPU-Sim PTX:  8 (potential) branch divergence @  PC=0x1170 (_1.ptx:800) @!%p7 bra $Lt_10_47106;
GPGPU-Sim PTX:    immediate post dominator      @  PC=0x11b0 (_1.ptx:813) mov.f32 %f87, %f101;
GPGPU-Sim PTX:  9 (potential) branch divergence @  PC=0x1180 (_1.ptx:802) bra.uni $Lt_10_46850;
GPGPU-Sim PTX:    immediate post dominator      @  PC=0x11b0 (_1.ptx:813) mov.f32 %f87, %f101;
GPGPU-Sim PTX: 10 (potential) branch divergence @  PC=0x11f8 (_1.ptx:823) @%p8 bra $Lt_10_47362;
GPGPU-Sim PTX:    immediate post dominator      @  PC=0x1210 (_1.ptx:829) add.s32 %r25, %r25, 1;
GPGPU-Sim PTX: 11 (potential) branch divergence @  PC=0x1230 (_1.ptx:833) @%p9 bra $Lt_10_45058;
GPGPU-Sim PTX:    immediate post dominator      @  PC=0x1238 (_1.ptx:834) mov.f32 %f109, 0f00000000;   // 0
GPGPU-Sim PTX: 12 (potential) branch divergence @  PC=0x1280 (_1.ptx:843) @%p10 bra $Lt_10_48130;
GPGPU-Sim PTX:    immediate post dominator      @  PC=0x2140 (_1.ptx:1416) add.s32 %r23, %r23, 1;
GPGPU-Sim PTX: 13 (potential) branch divergence @  PC=0x1330 (_1.ptx:868) @%p11 bra $Lt_10_48898;
GPGPU-Sim PTX:    immediate post dominator      @  PC=0x13b8 (_1.ptx:888) sub.f32 %f136, %f21, %f119;
GPGPU-Sim PTX: 14 (potential) branch divergence @  PC=0x1350 (_1.ptx:873) bra.uni $Lt_10_48642;
GPGPU-Sim PTX:    immediate post dominator      @  PC=0x13b8 (_1.ptx:888) sub.f32 %f136, %f21, %f119;
GPGPU-Sim PTX: 15 (potential) branch divergence @  PC=0x1430 (_1.ptx:903) @!%p12 bra $Lt_10_49410;
GPGPU-Sim PTX:    immediate post dominator      @  PC=0x1470 (_1.ptx:915) mov.f32 %f153, 0f3d4ccccd;   // 0.05
GPGPU-Sim PTX: 16 (potential) branch divergence @  PC=0x1450 (_1.ptx:908) bra.uni $Lt_10_49154;
GPGPU-Sim PTX:    immediate post dominator      @  PC=0x1470 (_1.ptx:915) mov.f32 %f153, 0f3d4ccccd;   // 0.05
GPGPU-Sim PTX: 17 (potential) branch divergence @  PC=0x1578 (_1.ptx:949) @!%p13 bra $Lt_10_58114;
GPGPU-Sim PTX:    immediate post dominator      @  PC=0x2080 (_1.ptx:1388) add.f32 %f399, %f126, %f126;
GPGPU-Sim PTX: 18 (potential) branch divergence @  PC=0x15c0 (_1.ptx:961) @%p14 bra $Lt_10_49922;
GPGPU-Sim PTX:    immediate post dominator      @  PC=0x17b0 (_1.ptx:1039) mov.f32 %f221, 0f00000000;   // 0
GPGPU-Sim PTX: 19 (potential) branch divergence @  PC=0x15e0 (_1.ptx:966) @!%p15 bra $Lt_10_50434;
GPGPU-Sim PTX:    immediate post dominator      @  PC=0x1638 (_1.ptx:982) mov.f32 %f190, %f183;
GPGPU-Sim PTX: 20 (potential) branch divergence @  PC=0x15f0 (_1.ptx:968) bra.uni $Lt_10_50178;
GPGPU-Sim PTX:    immediate post dominator      @  PC=0x1638 (_1.ptx:982) mov.f32 %f190, %f183;
GPGPU-Sim PTX: 21 (potential) branch divergence @  PC=0x1640 (_1.ptx:983) bra.uni $Lt_10_49666;
GPGPU-Sim PTX:    immediate post dominator      @  PC=0x17b0 (_1.ptx:1039) mov.f32 %f221, 0f00000000;   // 0
GPGPU-Sim PTX: 22 (potential) branch divergence @  PC=0x1738 (_1.ptx:1016) @%p18 bra $Lt_10_50946;
GPGPU-Sim PTX:    immediate post dominator      @  PC=0x17a8 (_1.ptx:1036) mov.f32 %f190, %f214;
GPGPU-Sim PTX: 23 (potential) branch divergence @  PC=0x1748 (_1.ptx:1018) bra.uni $Lt_10_51202;
GPGPU-Sim PTX:    immediate post dominator      @  PC=0x17a8 (_1.ptx:1036) mov.f32 %f190, %f214;
GPGPU-Sim PTX: 24 (potential) branch divergence @  PC=0x1768 (_1.ptx:1023) @!%p19 bra $Lt_10_51458;
GPGPU-Sim PTX:    immediate post dominator      @  PC=0x17a8 (_1.ptx:1036) mov.f32 %f190, %f214;
GPGPU-Sim PTX: 25 (potential) branch divergence @  PC=0x1778 (_1.ptx:1025) bra.uni $Lt_10_51202;
GPGPU-Sim PTX:    immediate post dominator      @  PC=0x17a8 (_1.ptx:1036) mov.f32 %f190, %f214;
GPGPU-Sim PTX: 26 (potential) branch divergence @  PC=0x17c0 (_1.ptx:1041) @!%p20 bra $Lt_10_58370;
GPGPU-Sim PTX:    immediate post dominator      @  PC=0x1828 (_1.ptx:1057) add.s32 %r50, %r50, 1;
GPGPU-Sim PTX: 27 (potential) branch divergence @  PC=0x1818 (_1.ptx:1052) @!%p21 bra $Lt_10_58370;
GPGPU-Sim PTX:    immediate post dominator      @  PC=0x1828 (_1.ptx:1057) add.s32 %r50, %r50, 1;
GPGPU-Sim PTX: 28 (potential) branch divergence @  PC=0x1848 (_1.ptx:1061) @%p22 bra $Lt_10_58882;
GPGPU-Sim PTX:    immediate post dominator      @  PC=0x1880 (_1.ptx:1071) @!%p23 bra $Lt_10_58114;
GPGPU-Sim PTX: 29 (potential) branch divergence @  PC=0x1860 (_1.ptx:1064) @%p23 bra $L_10_42498;
GPGPU-Sim PTX:    immediate post dominator      @  PC=0x1880 (_1.ptx:1071) @!%p23 bra $Lt_10_58114;
GPGPU-Sim PTX: 30 (potential) branch divergence @  PC=0x1868 (_1.ptx:1065) bra.uni $L_10_43266;
GPGPU-Sim PTX:    immediate post dominator      @  PC=0x1880 (_1.ptx:1071) @!%p23 bra $Lt_10_58114;
GPGPU-Sim PTX: 31 (potential) branch divergence @  PC=0x1880 (_1.ptx:1071) @!%p23 bra $Lt_10_58114;
GPGPU-Sim PTX:    immediate post dominator      @  PC=0x2080 (_1.ptx:1388) add.f32 %f399, %f126, %f126;
GPGPU-Sim PTX: 32 (potential) branch divergence @  PC=0x19c8 (_1.ptx:1115) @!%p24 bra $Lt_10_51714;
GPGPU-Sim PTX:    immediate post dominator      @  PC=0x2040 (_1.ptx:1375) mov.f32 %f394, 0f3f4ccccd;   // 0.8
GPGPU-Sim PTX: 33 (potential) branch divergence @  PC=0x19d8 (_1.ptx:1118) bra.uni $LDWendi___isnanf_192_1;
GPGPU-Sim PTX:    immediate post dominator      @  PC=0x2040 (_1.ptx:1375) mov.f32 %f394, 0f3f4ccccd;   // 0.8
GPGPU-Sim PTX: 34 (potential) branch divergence @  PC=0x19f8 (_1.ptx:1124) @!%p25 bra $Lt_10_7682;
GPGPU-Sim PTX:    immediate post dominator      @  PC=0x2040 (_1.ptx:1375) mov.f32 %f394, 0f3f4ccccd;   // 0.8
GPGPU-Sim PTX: 35 (potential) branch divergence @  PC=0x1a00 (_1.ptx:1125) bra.uni $Lt_10_7938;
GPGPU-Sim PTX:    immediate post dominator      @  PC=0x1a20 (_1.ptx:1133) mov.f32 %f272, 0f7f800000;   // ((1.0F)/(0.0F))
GPGPU-Sim PTX: 36 (potential) branch divergence @  PC=0x1a18 (_1.ptx:1130) bra.uni $LDWendi___isnanf_192_1;
GPGPU-Sim PTX:    immediate post dominator      @  PC=0x2040 (_1.ptx:1375) mov.f32 %f394, 0f3f4ccccd;   // 0.8
GPGPU-Sim PTX: 37 (potential) branch divergence @  PC=0x1a30 (_1.ptx:1135) @!%p26 bra $Lt_10_52226;
GPGPU-Sim PTX:    immediate post dominator      @  PC=0x2040 (_1.ptx:1375) mov.f32 %f394, 0f3f4ccccd;   // 0.8
GPGPU-Sim PTX: 38 (potential) branch divergence @  PC=0x1a40 (_1.ptx:1138) bra.uni $LDWendi___isnanf_192_1;
GPGPU-Sim PTX:    immediate post dominator      @  PC=0x2040 (_1.ptx:1375) mov.f32 %f394, 0f3f4ccccd;   // 0.8
GPGPU-Sim PTX: 39 (potential) branch divergence @  PC=0x1a58 (_1.ptx:1142) @!%p27 bra $Lt_10_52738;
GPGPU-Sim PTX:    immediate post dominator      @  PC=0x2040 (_1.ptx:1375) mov.f32 %f394, 0f3f4ccccd;   // 0.8
GPGPU-Sim PTX: 40 (potential) branch divergence @  PC=0x1ab8 (_1.ptx:1155) bra.uni $LDWendi___isnanf_192_1;
GPGPU-Sim PTX:    immediate post dominator      @  PC=0x2040 (_1.ptx:1375) mov.f32 %f394, 0f3f4ccccd;   // 0.8
GPGPU-Sim PTX: 41 (potential) branch divergence @  PC=0x1ad0 (_1.ptx:1159) @!%p29 bra $Lt_10_53250;
GPGPU-Sim PTX:    immediate post dominator      @  PC=0x2040 (_1.ptx:1375) mov.f32 %f394, 0f3f4ccccd;   // 0.8
GPGPU-Sim PTX: 42 (potential) branch divergence @  PC=0x1b20 (_1.ptx:1170) @!%p30 bra $Lt_10_53762;
GPGPU-Sim PTX:    immediate post dominator      @  PC=0x1b40 (_1.ptx:1177) mov.f32 %f268, %f284;
GPGPU-Sim PTX: 43 (potential) branch divergence @  PC=0x1b48 (_1.ptx:1178) bra.uni $LDWendi___isnanf_192_1;
GPGPU-Sim PTX:    immediate post dominator      @  PC=0x2040 (_1.ptx:1375) mov.f32 %f394, 0f3f4ccccd;   // 0.8
GPGPU-Sim PTX: 44 (potential) branch divergence @  PC=0x1b60 (_1.ptx:1183) @!%p31 bra $Lt_10_59394;
GPGPU-Sim PTX:    immediate post dominator      @  PC=0x2040 (_1.ptx:1375) mov.f32 %f394, 0f3f4ccccd;   // 0.8
GPGPU-Sim PTX: 45 (potential) branch divergence @  PC=0x1b88 (_1.ptx:1188) @!%p32 bra $Lt_10_59394;
GPGPU-Sim PTX:    immediate post dominator      @  PC=0x2040 (_1.ptx:1375) mov.f32 %f394, 0f3f4ccccd;   // 0.8
GPGPU-Sim PTX: 46 (potential) branch divergence @  PC=0x1ba0 (_1.ptx:1192) bra.uni $LDWendi___isnanf_192_1;
GPGPU-Sim PTX:    immediate post dominator      @  PC=0x2040 (_1.ptx:1375) mov.f32 %f394, 0f3f4ccccd;   // 0.8
GPGPU-Sim PTX: 47 (potential) branch divergence @  PC=0x1bd8 (_1.ptx:1202) @%p33 bra $Lt_10_54530;
GPGPU-Sim PTX:    immediate post dominator      @  PC=0x1c20 (_1.ptx:1216) sub.s32 %r64, %r64, 127;
GPGPU-Sim PTX: 48 (potential) branch divergence @  PC=0x1c10 (_1.ptx:1211) bra.uni $Lt_10_54274;
GPGPU-Sim PTX:    immediate post dominator      @  PC=0x1c20 (_1.ptx:1216) sub.s32 %r64, %r64, 127;
GPGPU-Sim PTX: 49 (potential) branch divergence @  PC=0x1c58 (_1.ptx:1224) @!%p34 bra $Lt_10_54786;
GPGPU-Sim PTX:    immediate post dominator      @  PC=0x1c78 (_1.ptx:1232) mov.f32 %f302, 0fbf800000;   // -1
GPGPU-Sim PTX: 50 (potential) branch divergence @  PC=0x1eb0 (_1.ptx:1312) @%p35 bra $Lt_10_55298;
GPGPU-Sim PTX:    immediate post dominator      @  PC=0x1ed8 (_1.ptx:1321) mov.f32 %f367, %f365;
GPGPU-Sim PTX: 51 (potential) branch divergence @  PC=0x1f98 (_1.ptx:1346) @!%p38 bra $Lt_10_55810;
GPGPU-Sim PTX:    immediate post dominator      @  PC=0x1fa8 (_1.ptx:1351) mov.f32 %f284, %f386;
GPGPU-Sim PTX: 52 (potential) branch divergence @  PC=0x2018 (_1.ptx:1365) @%p39 bra $Lt_10_56322;
GPGPU-Sim PTX:    immediate post dominator      @  PC=0x2038 (_1.ptx:1372) mov.f32 %f268, %f284;
GPGPU-Sim PTX: 53 (potential) branch divergence @  PC=0x2158 (_1.ptx:1419) @%p40 bra $L_10_42242;
GPGPU-Sim PTX:    immediate post dominator      @  PC=0x2170 (_1.ptx:1424) sub.s32 %r86, %r24, 1;
GPGPU-Sim PTX: 54 (potential) branch divergence @  PC=0x2168 (_1.ptx:1421) @%p41 bra $L_10_41474;
GPGPU-Sim PTX:    immediate post dominator      @  PC=0x2170 (_1.ptx:1424) sub.s32 %r86, %r24, 1;
GPGPU-Sim PTX: 55 (potential) branch divergence @  PC=0x2190 (_1.ptx:1428) @%p42 bra $Lt_10_56834;
GPGPU-Sim PTX:    immediate post dominator      @  PC=0x2288 (_1.ptx:1464) ld.global.u32 %r92, [%rd4+0];
GPGPU-Sim PTX: 56 (potential) branch divergence @  PC=0x2280 (_1.ptx:1461) @%p43 bra $Lt_10_57346;
GPGPU-Sim PTX:    immediate post dominator      @  PC=0x2288 (_1.ptx:1464) ld.global.u32 %r92, [%rd4+0];
GPGPU-Sim PTX: ... end of reconvergence points for _Z6renderPjP4Nodejjff
GPGPU-Sim PTX: ... done pre-decoding instructions for '_Z6renderPjP4Nodejjff'.
GPGPU-Sim PTX: instruction assembly for function '_ZN4dim3C1Ejjj'...   done.
GPGPU-Sim PTX: finding reconvergence points for '_ZN4dim3C1Ejjj'...
GPGPU-Sim PTX: Finding dominators for '_ZN4dim3C1Ejjj'...
GPGPU-Sim PTX: Finding immediate dominators for '_ZN4dim3C1Ejjj'...
GPGPU-Sim PTX: Finding postdominators for '_ZN4dim3C1Ejjj'...
GPGPU-Sim PTX: Finding immediate postdominators for '_ZN4dim3C1Ejjj'...
GPGPU-Sim PTX: pre-decoding instructions for '_ZN4dim3C1Ejjj'...
GPGPU-Sim PTX: reconvergence points for _ZN4dim3C1Ejjj...
GPGPU-Sim PTX: ... end of reconvergence points for _ZN4dim3C1Ejjj
GPGPU-Sim PTX: ... done pre-decoding instructions for '_ZN4dim3C1Ejjj'.
GPGPU-Sim PTX: finished parsing EMBEDDED .ptx file _1.ptx
Adding _cuobjdump_1.ptx with cubin handle 1
GPGPU-Sim PTX: extracting embedded .ptx to temporary file "_ptx_wYcXY3"
Running: cat _ptx_wYcXY3 | sed 's/.version 1.5/.version 1.4/' | sed 's/, texmode_independent//' | sed 's/\(\.extern \.const\[1\] .b8 \w\+\)\[\]/\1\[1\]/' | sed 's/const\[.\]/const\[0\]/g' > _ptx2_LjObF7
GPGPU-Sim PTX: generating ptxinfo using "$CUDA_INSTALL_PATH/bin/ptxas --gpu-name=sm_20 -v _ptx2_LjObF7 --output-file  /dev/null 2> _ptx_wYcXY3info"
GPGPU-Sim PTX: Kernel '_Z6renderPjP4Nodejjff' : regs=45, lmem=4, smem=0, cmem=180
GPGPU-Sim PTX: removing ptxinfo using "rm -f _ptx_wYcXY3 _ptx2_LjObF7 _ptx_wYcXY3info"
GPGPU-Sim PTX: loading globals with explicit initializers... 
GPGPU-Sim PTX: finished loading globals (0 bytes total).
GPGPU-Sim PTX: loading constants with explicit initializers...  done.
GPGPU-Sim PTX: __cudaRegisterVar: hostVar = 0x632880; deviceAddress = MView; deviceName = MView
GPGPU-Sim PTX: __cudaRegisterVar: Registering const memory space of 48 bytes
GPGPU-Sim PTX registering constant MView (48 bytes) to name mapping
GPGPU-Sim PTX: __cudaRegisterVar: hostVar = 0x6328c0; deviceAddress = cnode; deviceName = cnode
GPGPU-Sim PTX: __cudaRegisterVar: Registering const memory space of 160 bytes
GPGPU-Sim PTX registering constant cnode (160 bytes) to name mapping
GPGPU-Sim PTX: cudaMemcpyToSymbol: symbol = 0x6328c0
GPGPU-Sim PTX: starting gpgpu_ptx_sim_memcpy_symbol with hostVar 0x0x6328c0
GPGPU-Sim PTX: gpgpu_ptx_sim_memcpy_symbol: Found PTX symbol w/ hostVar=0x6328c0
GPGPU-Sim PTX: gpgpu_ptx_sim_memcpy_symbol: copying const memory 160 bytes  to  symbol cnode+0 @0x100 ...
GPGPU-Sim PTX: cudaMemcpyToSymbol: symbol = 0x632880
GPGPU-Sim PTX: starting gpgpu_ptx_sim_memcpy_symbol with hostVar 0x0x632880
GPGPU-Sim PTX: gpgpu_ptx_sim_memcpy_symbol: Found PTX symbol w/ hostVar=0x632880
GPGPU-Sim PTX: gpgpu_ptx_sim_memcpy_symbol: copying const memory 48 bytes  to  symbol MView+0 @0x200 ...

GPGPU-Sim PTX: cudaLaunch for 0x0x40d033 (mode=performance simulation) on stream 0
GPGPU-Sim PTX: pushing kernel '_Z6renderPjP4Nodejjff' to stream 0, gridDim= (16,32,1) blockDim = (16,8,1) 
kernel '_Z6renderPjP4Nodejjff' transfer to GPU hardware scheduler
GPGPU-Sim uArch: Shader 1 bind to kernel 1 '_Z6renderPjP4Nodejjff'
GPGPU-Sim uArch: CTA/core = 5, limited by: regs
GPGPU-Sim uArch: core:  1, cta: 0 initialized @(1,0)
GPGPU-Sim uArch: Shader 2 bind to kernel 1 '_Z6renderPjP4Nodejjff'
GPGPU-Sim uArch: core:  2, cta: 0 initialized @(1,0)
GPGPU-Sim uArch: Shader 3 bind to kernel 1 '_Z6renderPjP4Nodejjff'
GPGPU-Sim uArch: core:  3, cta: 0 initialized @(1,0)
GPGPU-Sim uArch: Shader 4 bind to kernel 1 '_Z6renderPjP4Nodejjff'
GPGPU-Sim uArch: core:  4, cta: 0 initialized @(1,0)
GPGPU-Sim uArch: Shader 5 bind to kernel 1 '_Z6renderPjP4Nodejjff'
GPGPU-Sim uArch: core:  5, cta: 0 initialized @(1,0)
GPGPU-Sim uArch: Shader 6 bind to kernel 1 '_Z6renderPjP4Nodejjff'
GPGPU-Sim uArch: core:  6, cta: 0 initialized @(1,0)
GPGPU-Sim uArch: Shader 7 bind to kernel 1 '_Z6renderPjP4Nodejjff'
GPGPU-Sim uArch: core:  7, cta: 0 initialized @(1,0)
GPGPU-Sim uArch: Shader 8 bind to kernel 1 '_Z6renderPjP4Nodejjff'
GPGPU-Sim uArch: core:  8, cta: 0 initialized @(1,0)
GPGPU-Sim uArch: Shader 9 bind to kernel 1 '_Z6renderPjP4Nodejjff'
GPGPU-Sim uArch: core:  9, cta: 0 initialized @(1,0)
GPGPU-Sim uArch: Shader 10 bind to kernel 1 '_Z6renderPjP4Nodejjff'
GPGPU-Sim uArch: core: 10, cta: 0 initialized @(1,0)
GPGPU-Sim uArch: Shader 11 bind to kernel 1 '_Z6renderPjP4Nodejjff'
GPGPU-Sim uArch: core: 11, cta: 0 initialized @(1,0)
GPGPU-Sim uArch: Shader 12 bind to kernel 1 '_Z6renderPjP4Nodejjff'
GPGPU-Sim uArch: core: 12, cta: 0 initialized @(1,0)
GPGPU-Sim uArch: Shader 13 bind to kernel 1 '_Z6renderPjP4Nodejjff'
GPGPU-Sim uArch: core: 13, cta: 0 initialized @(1,0)
GPGPU-Sim uArch: Shader 14 bind to kernel 1 '_Z6renderPjP4Nodejjff'
GPGPU-Sim uArch: core: 14, cta: 0 initialized @(1,0)
GPGPU-Sim uArch: Shader 0 bind to kernel 1 '_Z6renderPjP4Nodejjff'
GPGPU-Sim uArch: core:  0, cta: 0 initialized @(1,0)
GPGPU-Sim uArch: core:  1, cta: 1 initialized @(2,0)
GPGPU-Sim uArch: core:  2, cta: 1 initialized @(2,0)
GPGPU-Sim uArch: core:  3, cta: 1 initialized @(2,0)
GPGPU-Sim uArch: core:  4, cta: 1 initialized @(2,0)
GPGPU-Sim uArch: core:  5, cta: 1 initialized @(2,0)
GPGPU-Sim uArch: core:  6, cta: 1 initialized @(2,0)
GPGPU-Sim uArch: core:  7, cta: 1 initialized @(2,0)
GPGPU-Sim uArch: core:  8, cta: 1 initialized @(2,0)
GPGPU-Sim uArch: core:  9, cta: 1 initialized @(2,0)
GPGPU-Sim uArch: core: 10, cta: 1 initialized @(2,0)
GPGPU-Sim uArch: core: 11, cta: 1 initialized @(2,0)
GPGPU-Sim uArch: core: 12, cta: 1 initialized @(2,0)
GPGPU-Sim uArch: core: 13, cta: 1 initialized @(2,0)
GPGPU-Sim uArch: core: 14, cta: 1 initialized @(2,0)
GPGPU-Sim uArch: core:  0, cta: 1 initialized @(2,0)
GPGPU-Sim uArch: core:  1, cta: 2 initialized @(3,0)
GPGPU-Sim uArch: core:  2, cta: 2 initialized @(3,0)
GPGPU-Sim uArch: core:  3, cta: 2 initialized @(3,0)
GPGPU-Sim uArch: core:  4, cta: 2 initialized @(3,0)
GPGPU-Sim uArch: core:  5, cta: 2 initialized @(3,0)
GPGPU-Sim uArch: core:  6, cta: 2 initialized @(3,0)
GPGPU-Sim uArch: core:  7, cta: 2 initialized @(3,0)
GPGPU-Sim uArch: core:  8, cta: 2 initialized @(3,0)
GPGPU-Sim uArch: core:  9, cta: 2 initialized @(3,0)
GPGPU-Sim uArch: core: 10, cta: 2 initialized @(3,0)
GPGPU-Sim uArch: core: 11, cta: 2 initialized @(3,0)
GPGPU-Sim uArch: core: 12, cta: 2 initialized @(3,0)
GPGPU-Sim uArch: core: 13, cta: 2 initialized @(3,0)
GPGPU-Sim uArch: core: 14, cta: 2 initialized @(3,0)
GPGPU-Sim uArch: core:  0, cta: 2 initialized @(3,0)
GPGPU-Sim uArch: core:  1, cta: 3 initialized @(4,0)
GPGPU-Sim uArch: core:  2, cta: 3 initialized @(4,0)
GPGPU-Sim uArch: core:  3, cta: 3 initialized @(4,0)
GPGPU-Sim uArch: core:  4, cta: 3 initialized @(4,0)
GPGPU-Sim uArch: core:  5, cta: 3 initialized @(4,0)
GPGPU-Sim uArch: core:  6, cta: 3 initialized @(4,0)
GPGPU-Sim uArch: core:  7, cta: 3 initialized @(4,0)
GPGPU-Sim uArch: core:  8, cta: 3 initialized @(4,0)
GPGPU-Sim uArch: core:  9, cta: 3 initialized @(4,0)
GPGPU-Sim uArch: core: 10, cta: 3 initialized @(4,0)
GPGPU-Sim uArch: core: 11, cta: 3 initialized @(4,0)
GPGPU-Sim uArch: core: 12, cta: 3 initialized @(4,0)
GPGPU-Sim uArch: core: 13, cta: 3 initialized @(4,0)
GPGPU-Sim uArch: core: 14, cta: 3 initialized @(4,0)
GPGPU-Sim uArch: core:  0, cta: 3 initialized @(4,0)
GPGPU-Sim uArch: core:  1, cta: 4 initialized @(5,0)
GPGPU-Sim uArch: core:  2, cta: 4 initialized @(5,0)
GPGPU-Sim uArch: core:  3, cta: 4 initialized @(5,0)
GPGPU-Sim uArch: core:  4, cta: 4 initialized @(5,0)
GPGPU-Sim uArch: core:  5, cta: 4 initialized @(5,0)
GPGPU-Sim uArch: core:  6, cta: 4 initialized @(5,0)
GPGPU-Sim uArch: core:  7, cta: 4 initialized @(5,0)
GPGPU-Sim uArch: core:  8, cta: 4 initialized @(5,0)
GPGPU-Sim uArch: core:  9, cta: 4 initialized @(5,0)
GPGPU-Sim uArch: core: 10, cta: 4 initialized @(5,0)
GPGPU-Sim uArch: core: 11, cta: 4 initialized @(5,0)
GPGPU-Sim uArch: core: 12, cta: 4 initialized @(5,0)
GPGPU-Sim uArch: core: 13, cta: 4 initialized @(5,0)
GPGPU-Sim uArch: core: 14, cta: 4 initialized @(5,0)
GPGPU-Sim uArch: core:  0, cta: 4 initialized @(5,0)
GPGPU-Sim uArch: cycles simulated: 500  inst.: 35776 (ipc=71.6) sim_rate=35776 (inst/sec) elapsed = 0:0:00:01 / Wed May  1 12:43:14 2019
GPGPU-Sim PTX: 100000 instructions simulated : ctaid=(5,1,0) tid=(15,1,0)
GPGPU-Sim uArch: cycles simulated: 3500  inst.: 99040 (ipc=28.3) sim_rate=49520 (inst/sec) elapsed = 0:0:00:02 / Wed May  1 12:43:15 2019
GPGPU-Sim PTX: 200000 instructions simulated : ctaid=(7,2,0) tid=(15,1,0)
GPGPU-Sim uArch: cycles simulated: 6000  inst.: 209152 (ipc=34.9) sim_rate=69717 (inst/sec) elapsed = 0:0:00:03 / Wed May  1 12:43:16 2019
GPGPU-Sim PTX: 300000 instructions simulated : ctaid=(8,2,0) tid=(15,1,0)
GPGPU-Sim uArch: cycles simulated: 8000  inst.: 311840 (ipc=39.0) sim_rate=77960 (inst/sec) elapsed = 0:0:00:04 / Wed May  1 12:43:17 2019
GPGPU-Sim PTX: 400000 instructions simulated : ctaid=(13,1,0) tid=(15,5,0)
GPGPU-Sim PTX: 500000 instructions simulated : ctaid=(15,1,0) tid=(15,1,0)
GPGPU-Sim uArch: cycles simulated: 10000  inst.: 529984 (ipc=53.0) sim_rate=105996 (inst/sec) elapsed = 0:0:00:05 / Wed May  1 12:43:18 2019
GPGPU-Sim PTX: 600000 instructions simulated : ctaid=(15,2,0) tid=(15,5,0)
GPGPU-Sim PTX: 700000 instructions simulated : ctaid=(10,3,0) tid=(15,5,0)
GPGPU-Sim uArch: cycles simulated: 12500  inst.: 781888 (ipc=62.6) sim_rate=130314 (inst/sec) elapsed = 0:0:00:06 / Wed May  1 12:43:19 2019
GPGPU-Sim PTX: 800000 instructions simulated : ctaid=(2,2,0) tid=(15,3,0)
GPGPU-Sim PTX: 900000 instructions simulated : ctaid=(11,1,0) tid=(15,7,0)
GPGPU-Sim PTX: 1000000 instructions simulated : ctaid=(7,1,0) tid=(15,7,0)
GPGPU-Sim PTX: 1100000 instructions simulated : ctaid=(14,1,0) tid=(15,3,0)
GPGPU-Sim uArch: cycles simulated: 14500  inst.: 1140000 (ipc=78.6) sim_rate=162857 (inst/sec) elapsed = 0:0:00:07 / Wed May  1 12:43:20 2019
GPGPU-Sim PTX: 1200000 instructions simulated : ctaid=(9,1,0) tid=(15,7,0)
GPGPU-Sim PTX: 1300000 instructions simulated : ctaid=(6,2,0) tid=(15,1,0)
GPGPU-Sim PTX: 1400000 instructions simulated : ctaid=(5,1,0) tid=(15,5,0)
GPGPU-Sim PTX: 1500000 instructions simulated : ctaid=(4,4,0) tid=(15,1,0)
GPGPU-Sim PTX: 1600000 instructions simulated : ctaid=(4,2,0) tid=(15,3,0)
GPGPU-Sim uArch: cycles simulated: 16000  inst.: 1630784 (ipc=101.9) sim_rate=203848 (inst/sec) elapsed = 0:0:00:08 / Wed May  1 12:43:21 2019
GPGPU-Sim PTX: 1700000 instructions simulated : ctaid=(4,4,0) tid=(15,5,0)
GPGPU-Sim PTX: 1800000 instructions simulated : ctaid=(0,3,0) tid=(15,7,0)
GPGPU-Sim PTX: 1900000 instructions simulated : ctaid=(4,1,0) tid=(15,7,0)
GPGPU-Sim PTX: 2000000 instructions simulated : ctaid=(8,2,0) tid=(15,5,0)
GPGPU-Sim PTX: 2100000 instructions simulated : ctaid=(5,2,0) tid=(15,3,0)
GPGPU-Sim PTX: 2200000 instructions simulated : ctaid=(12,3,0) tid=(15,5,0)
GPGPU-Sim uArch: cycles simulated: 17000  inst.: 2176128 (ipc=128.0) sim_rate=241792 (inst/sec) elapsed = 0:0:00:09 / Wed May  1 12:43:22 2019
GPGPU-Sim PTX: 2300000 instructions simulated : ctaid=(3,2,0) tid=(15,3,0)
GPGPU-Sim PTX: 2400000 instructions simulated : ctaid=(10,0,0) tid=(15,7,0)
GPGPU-Sim PTX: 2500000 instructions simulated : ctaid=(12,0,0) tid=(15,1,0)
GPGPU-Sim PTX: 2600000 instructions simulated : ctaid=(8,1,0) tid=(15,3,0)
GPGPU-Sim PTX: 2700000 instructions simulated : ctaid=(11,3,0) tid=(15,7,0)
GPGPU-Sim PTX: 2800000 instructions simulated : ctaid=(15,2,0) tid=(15,7,0)
GPGPU-Sim uArch: cycles simulated: 18000  inst.: 2799872 (ipc=155.5) sim_rate=279987 (inst/sec) elapsed = 0:0:00:10 / Wed May  1 12:43:23 2019
GPGPU-Sim PTX: 2900000 instructions simulated : ctaid=(1,4,0) tid=(15,5,0)
GPGPU-Sim PTX: 3000000 instructions simulated : ctaid=(13,0,0) tid=(15,3,0)
GPGPU-Sim PTX: 3100000 instructions simulated : ctaid=(1,4,0) tid=(15,5,0)
GPGPU-Sim PTX: 3200000 instructions simulated : ctaid=(5,3,0) tid=(15,7,0)
GPGPU-Sim PTX: 3300000 instructions simulated : ctaid=(3,3,0) tid=(15,1,0)
GPGPU-Sim PTX: 3400000 instructions simulated : ctaid=(11,1,0) tid=(15,7,0)
GPGPU-Sim uArch: cycles simulated: 19000  inst.: 3329184 (ipc=175.2) sim_rate=302653 (inst/sec) elapsed = 0:0:00:11 / Wed May  1 12:43:24 2019
GPGPU-Sim PTX: 3500000 instructions simulated : ctaid=(3,4,0) tid=(15,5,0)
GPGPU-Sim PTX: 3600000 instructions simulated : ctaid=(2,4,0) tid=(15,7,0)
GPGPU-Sim PTX: 3700000 instructions simulated : ctaid=(0,0,0) tid=(15,5,0)
GPGPU-Sim PTX: 3800000 instructions simulated : ctaid=(4,3,0) tid=(15,1,0)
GPGPU-Sim uArch: cycles simulated: 20000  inst.: 3741472 (ipc=187.1) sim_rate=311789 (inst/sec) elapsed = 0:0:00:12 / Wed May  1 12:43:25 2019
GPGPU-Sim PTX: 3900000 instructions simulated : ctaid=(6,2,0) tid=(15,1,0)
GPGPU-Sim PTX: 4000000 instructions simulated : ctaid=(9,1,0) tid=(15,1,0)
GPGPU-Sim PTX: 4100000 instructions simulated : ctaid=(15,1,0) tid=(15,3,0)
GPGPU-Sim PTX: 4200000 instructions simulated : ctaid=(14,3,0) tid=(15,1,0)
GPGPU-Sim PTX: 4300000 instructions simulated : ctaid=(6,2,0) tid=(15,7,0)
GPGPU-Sim uArch: cycles simulated: 22000  inst.: 4265728 (ipc=193.9) sim_rate=328132 (inst/sec) elapsed = 0:0:00:13 / Wed May  1 12:43:26 2019
GPGPU-Sim PTX: 4400000 instructions simulated : ctaid=(1,0,0) tid=(15,3,0)
GPGPU-Sim PTX: 4500000 instructions simulated : ctaid=(0,4,0) tid=(15,1,0)
GPGPU-Sim PTX: 4600000 instructions simulated : ctaid=(14,2,0) tid=(6,3,0)
GPGPU-Sim PTX: 4700000 instructions simulated : ctaid=(13,3,0) tid=(5,1,0)
GPGPU-Sim PTX: 4800000 instructions simulated : ctaid=(2,1,0) tid=(15,4,0)
GPGPU-Sim PTX: 4900000 instructions simulated : ctaid=(0,0,0) tid=(15,4,0)
GPGPU-Sim PTX: 5000000 instructions simulated : ctaid=(2,0,0) tid=(15,2,0)
GPGPU-Sim uArch: cycles simulated: 23000  inst.: 4874928 (ipc=212.0) sim_rate=348209 (inst/sec) elapsed = 0:0:00:14 / Wed May  1 12:43:27 2019
GPGPU-Sim PTX: 5100000 instructions simulated : ctaid=(14,3,0) tid=(15,0,0)
GPGPU-Sim PTX: 5200000 instructions simulated : ctaid=(10,1,0) tid=(15,0,0)
GPGPU-Sim PTX: 5300000 instructions simulated : ctaid=(3,0,0) tid=(15,2,0)
GPGPU-Sim PTX: 5400000 instructions simulated : ctaid=(15,0,0) tid=(3,3,0)
GPGPU-Sim PTX: 5500000 instructions simulated : ctaid=(0,2,0) tid=(11,2,0)
GPGPU-Sim PTX: 5600000 instructions simulated : ctaid=(11,2,0) tid=(2,5,0)
GPGPU-Sim PTX: 5700000 instructions simulated : ctaid=(11,2,0) tid=(11,4,0)
GPGPU-Sim PTX: 5800000 instructions simulated : ctaid=(14,2,0) tid=(15,2,0)
GPGPU-Sim uArch: cycles simulated: 24000  inst.: 5636880 (ipc=234.9) sim_rate=375792 (inst/sec) elapsed = 0:0:00:15 / Wed May  1 12:43:28 2019
GPGPU-Sim PTX: 5900000 instructions simulated : ctaid=(13,3,0) tid=(2,1,0)
GPGPU-Sim PTX: 6000000 instructions simulated : ctaid=(1,3,0) tid=(15,6,0)
GPGPU-Sim PTX: 6100000 instructions simulated : ctaid=(7,0,0) tid=(11,3,0)
GPGPU-Sim PTX: 6200000 instructions simulated : ctaid=(8,4,0) tid=(11,7,0)
GPGPU-Sim uArch: cycles simulated: 25000  inst.: 6070148 (ipc=242.8) sim_rate=379384 (inst/sec) elapsed = 0:0:00:16 / Wed May  1 12:43:29 2019
GPGPU-Sim PTX: 6300000 instructions simulated : ctaid=(4,3,0) tid=(11,5,0)
GPGPU-Sim PTX: 6400000 instructions simulated : ctaid=(0,2,0) tid=(11,3,0)
GPGPU-Sim PTX: 6500000 instructions simulated : ctaid=(3,2,0) tid=(8,7,0)
GPGPU-Sim PTX: 6600000 instructions simulated : ctaid=(11,0,0) tid=(11,3,0)
GPGPU-Sim uArch: cycles simulated: 27000  inst.: 6503460 (ipc=240.9) sim_rate=382556 (inst/sec) elapsed = 0:0:00:17 / Wed May  1 12:43:30 2019
GPGPU-Sim PTX: 6700000 instructions simulated : ctaid=(12,1,0) tid=(11,3,0)
GPGPU-Sim PTX: 6800000 instructions simulated : ctaid=(1,0,0) tid=(11,5,0)
GPGPU-Sim PTX: 6900000 instructions simulated : ctaid=(7,2,0) tid=(11,1,0)
GPGPU-Sim PTX: 7000000 instructions simulated : ctaid=(8,0,0) tid=(11,7,0)
GPGPU-Sim PTX: 7100000 instructions simulated : ctaid=(8,4,0) tid=(11,3,0)
GPGPU-Sim uArch: cycles simulated: 28000  inst.: 6915396 (ipc=247.0) sim_rate=384188 (inst/sec) elapsed = 0:0:00:18 / Wed May  1 12:43:31 2019
GPGPU-Sim PTX: 7200000 instructions simulated : ctaid=(12,0,0) tid=(11,1,0)
GPGPU-Sim PTX: 7300000 instructions simulated : ctaid=(14,2,0) tid=(11,3,0)
GPGPU-Sim PTX: 7400000 instructions simulated : ctaid=(0,1,0) tid=(11,3,0)
GPGPU-Sim PTX: 7500000 instructions simulated : ctaid=(6,3,0) tid=(11,3,0)
GPGPU-Sim uArch: cycles simulated: 29500  inst.: 7389124 (ipc=250.5) sim_rate=388901 (inst/sec) elapsed = 0:0:00:19 / Wed May  1 12:43:32 2019
GPGPU-Sim PTX: 7600000 instructions simulated : ctaid=(11,3,0) tid=(11,7,0)
GPGPU-Sim PTX: 7700000 instructions simulated : ctaid=(9,2,0) tid=(11,5,0)
GPGPU-Sim PTX: 7800000 instructions simulated : ctaid=(8,4,0) tid=(11,3,0)
GPGPU-Sim PTX: 7900000 instructions simulated : ctaid=(7,3,0) tid=(11,3,0)
GPGPU-Sim PTX: 8000000 instructions simulated : ctaid=(13,0,0) tid=(11,5,0)
GPGPU-Sim PTX: 8100000 instructions simulated : ctaid=(1,0,0) tid=(11,7,0)
GPGPU-Sim uArch: cycles simulated: 31000  inst.: 7952164 (ipc=256.5) sim_rate=397608 (inst/sec) elapsed = 0:0:00:20 / Wed May  1 12:43:33 2019
GPGPU-Sim PTX: 8200000 instructions simulated : ctaid=(7,0,0) tid=(11,5,0)
GPGPU-Sim PTX: 8300000 instructions simulated : ctaid=(5,3,0) tid=(11,5,0)
GPGPU-Sim PTX: 8400000 instructions simulated : ctaid=(6,2,0) tid=(11,7,0)
GPGPU-Sim PTX: 8500000 instructions simulated : ctaid=(9,4,0) tid=(11,5,0)
GPGPU-Sim PTX: 8600000 instructions simulated : ctaid=(0,2,0) tid=(14,4,0)
GPGPU-Sim PTX: 8700000 instructions simulated : ctaid=(8,4,0) tid=(4,6,0)
GPGPU-Sim uArch: cycles simulated: 32000  inst.: 8503208 (ipc=265.7) sim_rate=404914 (inst/sec) elapsed = 0:0:00:21 / Wed May  1 12:43:34 2019
GPGPU-Sim PTX: 8800000 instructions simulated : ctaid=(1,3,0) tid=(15,5,0)
GPGPU-Sim PTX: 8900000 instructions simulated : ctaid=(3,1,0) tid=(11,5,0)
GPGPU-Sim PTX: 9000000 instructions simulated : ctaid=(8,0,0) tid=(3,7,0)
GPGPU-Sim PTX: 9100000 instructions simulated : ctaid=(12,0,0) tid=(7,1,0)
GPGPU-Sim PTX: 9200000 instructions simulated : ctaid=(2,2,0) tid=(0,1,0)
GPGPU-Sim PTX: 9300000 instructions simulated : ctaid=(11,1,0) tid=(7,3,0)
GPGPU-Sim PTX: 9400000 instructions simulated : ctaid=(8,4,0) tid=(10,4,0)
GPGPU-Sim PTX: 9500000 instructions simulated : ctaid=(8,0,0) tid=(13,4,0)
GPGPU-Sim uArch: cycles simulated: 33000  inst.: 9304440 (ipc=282.0) sim_rate=422929 (inst/sec) elapsed = 0:0:00:22 / Wed May  1 12:43:35 2019
GPGPU-Sim PTX: 9600000 instructions simulated : ctaid=(0,0,0) tid=(2,6,0)
GPGPU-Sim PTX: 9700000 instructions simulated : ctaid=(5,0,0) tid=(14,6,0)
GPGPU-Sim PTX: 9800000 instructions simulated : ctaid=(8,3,0) tid=(3,7,0)
GPGPU-Sim PTX: 9900000 instructions simulated : ctaid=(5,0,0) tid=(6,0,0)
GPGPU-Sim PTX: 10000000 instructions simulated : ctaid=(4,0,0) tid=(14,6,0)
GPGPU-Sim PTX: 10100000 instructions simulated : ctaid=(7,4,0) tid=(1,0,0)
GPGPU-Sim uArch: cycles simulated: 34000  inst.: 9824971 (ipc=289.0) sim_rate=427172 (inst/sec) elapsed = 0:0:00:23 / Wed May  1 12:43:36 2019
GPGPU-Sim PTX: 10200000 instructions simulated : ctaid=(1,1,0) tid=(14,0,0)
GPGPU-Sim PTX: 10300000 instructions simulated : ctaid=(3,2,0) tid=(7,2,0)
GPGPU-Sim PTX: 10400000 instructions simulated : ctaid=(12,0,0) tid=(6,1,0)
GPGPU-Sim uArch: Shader 9 finished CTA #3 (35336,0), 4 CTAs running
GPGPU-Sim uArch: core:  9, cta: 3 initialized @(35337,0)
GPGPU-Sim uArch: Shader 9 finished CTA #4 (35357,0), 4 CTAs running
GPGPU-Sim uArch: core:  9, cta: 4 initialized @(35358,0)
GPGPU-Sim uArch: Shader 0 finished CTA #0 (35377,0), 4 CTAs running
GPGPU-Sim uArch: core:  0, cta: 0 initialized @(35378,0)
GPGPU-Sim uArch: Shader 1 finished CTA #1 (35379,0), 4 CTAs running
GPGPU-Sim uArch: core:  1, cta: 1 initialized @(35380,0)
GPGPU-Sim uArch: Shader 2 finished CTA #1 (35400,0), 4 CTAs running
GPGPU-Sim uArch: core:  2, cta: 1 initialized @(35401,0)
GPGPU-Sim uArch: Shader 0 finished CTA #1 (35404,0), 4 CTAs running
GPGPU-Sim uArch: core:  0, cta: 1 initialized @(35405,0)
GPGPU-Sim uArch: Shader 4 finished CTA #2 (35423,0), 4 CTAs running
GPGPU-Sim uArch: core:  4, cta: 2 initialized @(35424,0)
GPGPU-Sim uArch: Shader 0 finished CTA #2 (35429,0), 4 CTAs running
GPGPU-Sim uArch: core:  0, cta: 2 initialized @(35430,0)
GPGPU-Sim uArch: Shader 1 finished CTA #0 (35433,0), 4 CTAs running
GPGPU-Sim uArch: core:  1, cta: 0 initialized @(35434,0)
GPGPU-Sim uArch: Shader 2 finished CTA #0 (35441,0), 4 CTAs running
GPGPU-Sim uArch: core:  2, cta: 0 initialized @(35442,0)
GPGPU-Sim uArch: Shader 14 finished CTA #0 (35446,0), 4 CTAs running
GPGPU-Sim uArch: core: 14, cta: 0 initialized @(35447,0)
GPGPU-Sim uArch: Shader 6 finished CTA #3 (35447,0), 4 CTAs running
GPGPU-Sim uArch: core:  6, cta: 3 initialized @(35448,0)
GPGPU-Sim uArch: Shader 3 finished CTA #0 (35457,0), 4 CTAs running
GPGPU-Sim uArch: core:  3, cta: 0 initialized @(35458,0)
GPGPU-Sim uArch: Shader 6 finished CTA #2 (35458,0), 4 CTAs running
GPGPU-Sim uArch: core:  6, cta: 2 initialized @(35459,0)
GPGPU-Sim uArch: Shader 0 finished CTA #3 (35463,0), 4 CTAs running
GPGPU-Sim uArch: core:  0, cta: 3 initialized @(35464,0)
GPGPU-Sim uArch: Shader 0 finished CTA #4 (35471,0), 4 CTAs running
GPGPU-Sim uArch: core:  0, cta: 4 initialized @(35472,0)
GPGPU-Sim uArch: Shader 7 finished CTA #3 (35481,0), 4 CTAs running
GPGPU-Sim uArch: core:  7, cta: 3 initialized @(35482,0)
GPGPU-Sim uArch: Shader 5 finished CTA #2 (35489,0), 4 CTAs running
GPGPU-Sim uArch: core:  5, cta: 2 initialized @(35490,0)
GPGPU-Sim uArch: Shader 3 finished CTA #1 (35491,0), 4 CTAs running
GPGPU-Sim uArch: core:  3, cta: 1 initialized @(35492,0)
GPGPU-Sim uArch: Shader 6 finished CTA #4 (35494,0), 4 CTAs running
GPGPU-Sim uArch: core:  6, cta: 4 initialized @(35495,0)
GPGPU-Sim uArch: cycles simulated: 35500  inst.: 10225545 (ipc=288.0) sim_rate=426064 (inst/sec) elapsed = 0:0:00:24 / Wed May  1 12:43:37 2019
GPGPU-Sim PTX: 10500000 instructions simulated : ctaid=(9,3,0) tid=(15,1,0)
GPGPU-Sim uArch: Shader 2 finished CTA #3 (35501,0), 4 CTAs running
GPGPU-Sim uArch: core:  2, cta: 3 initialized @(35502,0)
GPGPU-Sim uArch: Shader 4 finished CTA #1 (35507,0), 4 CTAs running
GPGPU-Sim uArch: core:  4, cta: 1 initialized @(35508,0)
GPGPU-Sim uArch: Shader 1 finished CTA #3 (35509,0), 4 CTAs running
GPGPU-Sim uArch: Shader 2 finished CTA #2 (35509,0), 4 CTAs running
GPGPU-Sim uArch: core:  1, cta: 3 initialized @(35510,0)
GPGPU-Sim uArch: core:  2, cta: 2 initialized @(35510,0)
GPGPU-Sim uArch: Shader 3 finished CTA #2 (35515,0), 4 CTAs running
GPGPU-Sim uArch: Shader 4 finished CTA #3 (35515,0), 4 CTAs running
GPGPU-Sim uArch: core:  3, cta: 2 initialized @(35516,0)
GPGPU-Sim uArch: core:  4, cta: 3 initialized @(35516,0)
GPGPU-Sim uArch: Shader 1 finished CTA #2 (35517,0), 4 CTAs running
GPGPU-Sim uArch: Shader 2 finished CTA #4 (35517,0), 4 CTAs running
GPGPU-Sim uArch: core:  1, cta: 2 initialized @(35518,0)
GPGPU-Sim uArch: core:  2, cta: 4 initialized @(35518,0)
GPGPU-Sim uArch: Shader 4 finished CTA #4 (35525,0), 4 CTAs running
GPGPU-Sim uArch: core:  4, cta: 4 initialized @(35526,0)
GPGPU-Sim uArch: Shader 8 finished CTA #3 (35527,0), 4 CTAs running
GPGPU-Sim uArch: core:  8, cta: 3 initialized @(35528,0)
GPGPU-Sim uArch: Shader 1 finished CTA #4 (35529,0), 4 CTAs running
GPGPU-Sim uArch: core:  1, cta: 4 initialized @(35530,0)
GPGPU-Sim uArch: Shader 3 finished CTA #4 (35533,0), 4 CTAs running
GPGPU-Sim uArch: core:  3, cta: 4 initialized @(35534,0)
GPGPU-Sim uArch: Shader 5 finished CTA #3 (35540,0), 4 CTAs running
GPGPU-Sim uArch: core:  5, cta: 3 initialized @(35541,0)
GPGPU-Sim uArch: Shader 8 finished CTA #2 (35543,0), 4 CTAs running
GPGPU-Sim uArch: core:  8, cta: 2 initialized @(35544,0)
GPGPU-Sim uArch: Shader 7 finished CTA #4 (35549,0), 4 CTAs running
GPGPU-Sim uArch: core:  7, cta: 4 initialized @(35550,0)
GPGPU-Sim uArch: Shader 5 finished CTA #4 (35564,0), 4 CTAs running
GPGPU-Sim uArch: core:  5, cta: 4 initialized @(35565,0)
GPGPU-Sim uArch: Shader 8 finished CTA #4 (35572,0), 4 CTAs running
GPGPU-Sim uArch: core:  8, cta: 4 initialized @(35573,0)
GPGPU-Sim uArch: Shader 3 finished CTA #3 (35659,0), 4 CTAs running
GPGPU-Sim uArch: core:  3, cta: 3 initialized @(35660,0)
GPGPU-Sim uArch: Shader 10 finished CTA #4 (35664,0), 4 CTAs running
GPGPU-Sim uArch: core: 10, cta: 4 initialized @(35665,0)
GPGPU-Sim PTX: 10600000 instructions simulated : ctaid=(4,6,0) tid=(10,3,0)
GPGPU-Sim uArch: cycles simulated: 36000  inst.: 10353892 (ipc=287.6) sim_rate=414155 (inst/sec) elapsed = 0:0:00:25 / Wed May  1 12:43:38 2019
GPGPU-Sim PTX: 10700000 instructions simulated : ctaid=(6,1,0) tid=(9,2,0)
GPGPU-Sim PTX: 10800000 instructions simulated : ctaid=(6,0,0) tid=(7,2,0)
GPGPU-Sim PTX: 10900000 instructions simulated : ctaid=(8,2,0) tid=(6,7,0)
GPGPU-Sim PTX: 11000000 instructions simulated : ctaid=(9,2,0) tid=(15,4,0)
GPGPU-Sim PTX: 11100000 instructions simulated : ctaid=(6,2,0) tid=(1,6,0)
GPGPU-Sim PTX: 11200000 instructions simulated : ctaid=(8,6,0) tid=(12,0,0)
GPGPU-Sim uArch: cycles simulated: 37500  inst.: 10932017 (ipc=291.5) sim_rate=420462 (inst/sec) elapsed = 0:0:00:26 / Wed May  1 12:43:39 2019
GPGPU-Sim PTX: 11300000 instructions simulated : ctaid=(4,1,0) tid=(7,4,0)
GPGPU-Sim PTX: 11400000 instructions simulated : ctaid=(7,1,0) tid=(1,1,0)
GPGPU-Sim PTX: 11500000 instructions simulated : ctaid=(7,2,0) tid=(11,1,0)
GPGPU-Sim PTX: 11600000 instructions simulated : ctaid=(6,3,0) tid=(14,3,0)
GPGPU-Sim PTX: 11700000 instructions simulated : ctaid=(6,5,0) tid=(13,1,0)
GPGPU-Sim uArch: cycles simulated: 38500  inst.: 11445937 (ipc=297.3) sim_rate=423923 (inst/sec) elapsed = 0:0:00:27 / Wed May  1 12:43:40 2019
GPGPU-Sim PTX: 11800000 instructions simulated : ctaid=(8,1,0) tid=(8,1,0)
GPGPU-Sim PTX: 11900000 instructions simulated : ctaid=(0,7,0) tid=(5,1,0)
GPGPU-Sim PTX: 12000000 instructions simulated : ctaid=(0,7,0) tid=(4,4,0)
GPGPU-Sim uArch: cycles simulated: 39000  inst.: 11746456 (ipc=301.2) sim_rate=419516 (inst/sec) elapsed = 0:0:00:28 / Wed May  1 12:43:41 2019
GPGPU-Sim PTX: 12100000 instructions simulated : ctaid=(4,1,0) tid=(7,0,0)
GPGPU-Sim PTX: 12200000 instructions simulated : ctaid=(5,5,0) tid=(14,3,0)
GPGPU-Sim PTX: 12300000 instructions simulated : ctaid=(9,4,0) tid=(7,5,0)
GPGPU-Sim uArch: Shader 7 finished CTA #2 (39508,0), 4 CTAs running
GPGPU-Sim uArch: core:  7, cta: 2 initialized @(39509,0)
GPGPU-Sim PTX: 12400000 instructions simulated : ctaid=(11,4,0) tid=(0,5,0)
GPGPU-Sim PTX: 12500000 instructions simulated : ctaid=(7,1,0) tid=(1,4,0)
GPGPU-Sim PTX: 12600000 instructions simulated : ctaid=(0,6,0) tid=(2,7,0)
GPGPU-Sim uArch: cycles simulated: 40000  inst.: 12358300 (ipc=309.0) sim_rate=426148 (inst/sec) elapsed = 0:0:00:29 / Wed May  1 12:43:42 2019
GPGPU-Sim PTX: 12700000 instructions simulated : ctaid=(0,5,0) tid=(11,5,0)
GPGPU-Sim PTX: 12800000 instructions simulated : ctaid=(8,4,0) tid=(10,2,0)
GPGPU-Sim PTX: 12900000 instructions simulated : ctaid=(7,1,0) tid=(10,1,0)
GPGPU-Sim uArch: Shader 14 finished CTA #2 (40473,0), 4 CTAs running
GPGPU-Sim uArch: core: 14, cta: 2 initialized @(40474,0)
GPGPU-Sim PTX: 13000000 instructions simulated : ctaid=(3,6,0) tid=(13,6,0)
GPGPU-Sim PTX: 13100000 instructions simulated : ctaid=(5,5,0) tid=(10,2,0)
GPGPU-Sim PTX: 13200000 instructions simulated : ctaid=(14,5,0) tid=(12,3,0)
GPGPU-Sim uArch: cycles simulated: 41000  inst.: 12908718 (ipc=314.8) sim_rate=430290 (inst/sec) elapsed = 0:0:00:30 / Wed May  1 12:43:43 2019
GPGPU-Sim PTX: 13300000 instructions simulated : ctaid=(5,0,0) tid=(8,6,0)
GPGPU-Sim PTX: 13400000 instructions simulated : ctaid=(13,6,0) tid=(6,2,0)
GPGPU-Sim PTX: 13500000 instructions simulated : ctaid=(8,0,0) tid=(5,5,0)
GPGPU-Sim PTX: 13600000 instructions simulated : ctaid=(9,3,0) tid=(9,7,0)
GPGPU-Sim PTX: 13700000 instructions simulated : ctaid=(7,0,0) tid=(0,5,0)
GPGPU-Sim PTX: 13800000 instructions simulated : ctaid=(7,1,0) tid=(12,6,0)
GPGPU-Sim uArch: cycles simulated: 42000  inst.: 13446531 (ipc=320.2) sim_rate=433759 (inst/sec) elapsed = 0:0:00:31 / Wed May  1 12:43:44 2019
GPGPU-Sim PTX: 13900000 instructions simulated : ctaid=(7,2,0) tid=(3,7,0)
GPGPU-Sim PTX: 14000000 instructions simulated : ctaid=(3,7,0) tid=(1,4,0)
GPGPU-Sim PTX: 14100000 instructions simulated : ctaid=(6,0,0) tid=(12,6,0)
GPGPU-Sim PTX: 14200000 instructions simulated : ctaid=(0,5,0) tid=(11,2,0)
GPGPU-Sim PTX: 14300000 instructions simulated : ctaid=(14,5,0) tid=(9,5,0)
GPGPU-Sim PTX: 14400000 instructions simulated : ctaid=(2,5,0) tid=(2,6,0)
GPGPU-Sim uArch: cycles simulated: 43000  inst.: 14023350 (ipc=326.1) sim_rate=438229 (inst/sec) elapsed = 0:0:00:32 / Wed May  1 12:43:45 2019
GPGPU-Sim PTX: 14500000 instructions simulated : ctaid=(1,7,0) tid=(2,6,0)
GPGPU-Sim PTX: 14600000 instructions simulated : ctaid=(6,1,0) tid=(4,5,0)
GPGPU-Sim PTX: 14700000 instructions simulated : ctaid=(14,5,0) tid=(13,1,0)
GPGPU-Sim PTX: 14800000 instructions simulated : ctaid=(0,6,0) tid=(2,7,0)
GPGPU-Sim PTX: 14900000 instructions simulated : ctaid=(7,4,0) tid=(13,1,0)
GPGPU-Sim PTX: 15000000 instructions simulated : ctaid=(8,0,0) tid=(11,4,0)
GPGPU-Sim uArch: cycles simulated: 44000  inst.: 14638080 (ipc=332.7) sim_rate=443578 (inst/sec) elapsed = 0:0:00:33 / Wed May  1 12:43:46 2019
GPGPU-Sim PTX: 15100000 instructions simulated : ctaid=(9,2,0) tid=(7,0,0)
GPGPU-Sim PTX: 15200000 instructions simulated : ctaid=(8,1,0) tid=(8,2,0)
GPGPU-Sim PTX: 15300000 instructions simulated : ctaid=(15,6,0) tid=(0,5,0)
GPGPU-Sim uArch: cycles simulated: 44500  inst.: 14920190 (ipc=335.3) sim_rate=438829 (inst/sec) elapsed = 0:0:00:34 / Wed May  1 12:43:47 2019
GPGPU-Sim PTX: 15400000 instructions simulated : ctaid=(11,6,0) tid=(8,3,0)
GPGPU-Sim PTX: 15500000 instructions simulated : ctaid=(6,6,0) tid=(13,4,0)
GPGPU-Sim PTX: 15600000 instructions simulated : ctaid=(9,2,0) tid=(3,6,0)
GPGPU-Sim uArch: Shader 14 finished CTA #3 (45022,0), 4 CTAs running
GPGPU-Sim uArch: core: 14, cta: 3 initialized @(45023,0)
GPGPU-Sim PTX: 15700000 instructions simulated : ctaid=(8,4,0) tid=(0,6,0)
GPGPU-Sim PTX: 15800000 instructions simulated : ctaid=(5,6,0) tid=(8,1,0)
GPGPU-Sim PTX: 15900000 instructions simulated : ctaid=(6,6,0) tid=(11,7,0)
GPGPU-Sim PTX: 16000000 instructions simulated : ctaid=(9,2,0) tid=(1,7,0)
GPGPU-Sim uArch: cycles simulated: 46000  inst.: 15583474 (ipc=338.8) sim_rate=445242 (inst/sec) elapsed = 0:0:00:35 / Wed May  1 12:43:48 2019
GPGPU-Sim PTX: 16100000 instructions simulated : ctaid=(6,5,0) tid=(10,5,0)
GPGPU-Sim PTX: 16200000 instructions simulated : ctaid=(10,6,0) tid=(3,6,0)
GPGPU-Sim PTX: 16300000 instructions simulated : ctaid=(3,5,0) tid=(11,6,0)
GPGPU-Sim uArch: Shader 13 finished CTA #2 (46639,0), 4 CTAs running
GPGPU-Sim uArch: core: 13, cta: 2 initialized @(46640,0)
GPGPU-Sim PTX: 16400000 instructions simulated : ctaid=(4,7,0) tid=(11,3,0)
GPGPU-Sim uArch: cycles simulated: 47000  inst.: 16034905 (ipc=341.2) sim_rate=445414 (inst/sec) elapsed = 0:0:00:36 / Wed May  1 12:43:49 2019
GPGPU-Sim PTX: 16500000 instructions simulated : ctaid=(1,6,0) tid=(1,2,0)
GPGPU-Sim PTX: 16600000 instructions simulated : ctaid=(1,6,0) tid=(1,5,0)
GPGPU-Sim PTX: 16700000 instructions simulated : ctaid=(9,6,0) tid=(1,3,0)
GPGPU-Sim PTX: 16800000 instructions simulated : ctaid=(15,6,0) tid=(6,3,0)
GPGPU-Sim PTX: 16900000 instructions simulated : ctaid=(2,6,0) tid=(5,3,0)
GPGPU-Sim uArch: cycles simulated: 48000  inst.: 16500504 (ipc=343.8) sim_rate=445959 (inst/sec) elapsed = 0:0:00:37 / Wed May  1 12:43:50 2019
GPGPU-Sim PTX: 17000000 instructions simulated : ctaid=(3,7,0) tid=(9,0,0)
GPGPU-Sim PTX: 17100000 instructions simulated : ctaid=(10,6,0) tid=(7,2,0)
GPGPU-Sim PTX: 17200000 instructions simulated : ctaid=(1,7,0) tid=(6,5,0)
GPGPU-Sim PTX: 17300000 instructions simulated : ctaid=(11,6,0) tid=(8,6,0)
GPGPU-Sim PTX: 17400000 instructions simulated : ctaid=(7,3,0) tid=(8,0,0)
GPGPU-Sim uArch: Shader 5 finished CTA #1 (48920,0), 4 CTAs running
GPGPU-Sim uArch: core:  5, cta: 1 initialized @(48921,0)
GPGPU-Sim uArch: cycles simulated: 49000  inst.: 17019575 (ipc=347.3) sim_rate=447883 (inst/sec) elapsed = 0:0:00:38 / Wed May  1 12:43:51 2019
GPGPU-Sim PTX: 17500000 instructions simulated : ctaid=(4,6,0) tid=(14,0,0)
GPGPU-Sim PTX: 17600000 instructions simulated : ctaid=(10,0,0) tid=(8,6,0)
GPGPU-Sim PTX: 17700000 instructions simulated : ctaid=(8,5,0) tid=(6,1,0)
GPGPU-Sim PTX: 17800000 instructions simulated : ctaid=(8,6,0) tid=(11,5,0)
GPGPU-Sim PTX: 17900000 instructions simulated : ctaid=(14,5,0) tid=(6,0,0)
GPGPU-Sim PTX: 18000000 instructions simulated : ctaid=(6,5,0) tid=(5,2,0)
GPGPU-Sim uArch: cycles simulated: 50000  inst.: 17522764 (ipc=350.5) sim_rate=449301 (inst/sec) elapsed = 0:0:00:39 / Wed May  1 12:43:52 2019
GPGPU-Sim PTX: 18100000 instructions simulated : ctaid=(8,5,0) tid=(1,5,0)
GPGPU-Sim uArch: Shader 12 finished CTA #3 (50308,0), 4 CTAs running
GPGPU-Sim uArch: core: 12, cta: 3 initialized @(50309,0)
GPGPU-Sim uArch: Shader 14 finished CTA #0 (50404,0), 4 CTAs running
GPGPU-Sim uArch: core: 14, cta: 0 initialized @(50405,0)
GPGPU-Sim uArch: Shader 14 finished CTA #1 (50411,0), 4 CTAs running
GPGPU-Sim uArch: core: 14, cta: 1 initialized @(50412,0)
GPGPU-Sim PTX: 18200000 instructions simulated : ctaid=(3,7,0) tid=(6,6,0)
GPGPU-Sim PTX: 18300000 instructions simulated : ctaid=(15,4,0) tid=(13,2,0)
GPGPU-Sim uArch: Shader 4 finished CTA #2 (50791,0), 4 CTAs running
GPGPU-Sim uArch: core:  4, cta: 2 initialized @(50792,0)
GPGPU-Sim PTX: 18400000 instructions simulated : ctaid=(12,5,0) tid=(14,5,0)
GPGPU-Sim uArch: Shader 10 finished CTA #4 (50868,0), 4 CTAs running
GPGPU-Sim uArch: core: 10, cta: 4 initialized @(50869,0)
GPGPU-Sim uArch: Shader 4 finished CTA #3 (50983,0), 4 CTAs running
GPGPU-Sim uArch: core:  4, cta: 3 initialized @(50984,0)
GPGPU-Sim uArch: cycles simulated: 51000  inst.: 17979208 (ipc=352.5) sim_rate=449480 (inst/sec) elapsed = 0:0:00:40 / Wed May  1 12:43:53 2019
GPGPU-Sim uArch: Shader 7 finished CTA #4 (51021,0), 4 CTAs running
GPGPU-Sim uArch: core:  7, cta: 4 initialized @(51022,0)
GPGPU-Sim uArch: Shader 7 finished CTA #3 (51029,0), 4 CTAs running
GPGPU-Sim uArch: core:  7, cta: 3 initialized @(51030,0)
GPGPU-Sim PTX: 18500000 instructions simulated : ctaid=(5,7,0) tid=(6,3,0)
GPGPU-Sim uArch: Shader 4 finished CTA #0 (51079,0), 4 CTAs running
GPGPU-Sim uArch: core:  4, cta: 0 initialized @(51080,0)
GPGPU-Sim uArch: Shader 11 finished CTA #4 (51183,0), 4 CTAs running
GPGPU-Sim uArch: core: 11, cta: 4 initialized @(51184,0)
GPGPU-Sim PTX: 18600000 instructions simulated : ctaid=(5,7,0) tid=(11,4,0)
GPGPU-Sim uArch: Shader 10 finished CTA #3 (51348,0), 4 CTAs running
GPGPU-Sim uArch: core: 10, cta: 3 initialized @(51349,0)
GPGPU-Sim uArch: Shader 9 finished CTA #3 (51392,0), 4 CTAs running
GPGPU-Sim uArch: core:  9, cta: 3 initialized @(51393,0)
GPGPU-Sim uArch: Shader 5 finished CTA #3 (51406,0), 4 CTAs running
GPGPU-Sim uArch: core:  5, cta: 3 initialized @(51407,0)
GPGPU-Sim uArch: Shader 5 finished CTA #2 (51427,0), 4 CTAs running
GPGPU-Sim uArch: core:  5, cta: 2 initialized @(51428,0)
GPGPU-Sim PTX: 18700000 instructions simulated : ctaid=(2,7,0) tid=(1,3,0)
GPGPU-Sim uArch: Shader 4 finished CTA #1 (51504,0), 4 CTAs running
GPGPU-Sim uArch: core:  4, cta: 1 initialized @(51505,0)
GPGPU-Sim uArch: Shader 5 finished CTA #4 (51602,0), 4 CTAs running
GPGPU-Sim uArch: core:  5, cta: 4 initialized @(51603,0)
GPGPU-Sim uArch: Shader 13 finished CTA #1 (51651,0), 4 CTAs running
GPGPU-Sim uArch: core: 13, cta: 1 initialized @(51652,0)
[...]
maxdqlatency = 0 
maxmflatency = 3496 
averagemflatency = 319 
max_icnt2mem_latency = 2164 
max_icnt2sh_latency = 149234 
mrq_lat_table:11621 	509 	834 	1765 	3805 	3776 	3729 	3553 	1789 	283 	0 	0 	0 	0 	0 	0 	0 	0 	0 	0 	0 	0 	0 	0 	0 	0 	0 	0 	0 	0 	0 	0 	
dq_lat_table:0 	0 	0 	0 	0 	0 	0 	0 	0 	0 	0 	0 	0 	0 	0 	0 	0 	0 	0 	0 	0 	0 	0 	0 	0 	0 	0 	0 	0 	0 	0 	0 	
mf_lat_table:0 	0 	0 	0 	0 	0 	0 	48935 	8141 	2223 	4144 	418 	0 	0 	0 	0 	0 	0 	0 	0 	0 	0 	0 	0 	0 	0 	0 	0 	0 	0 	0 	0 	
icnt2mem_lat_table:0 	0 	0 	20867 	13507 	13400 	28527 	1555 	1757 	2205 	245 	1 	0 	0 	0 	0 	0 	0 	0 	0 	0 	0 	0 	0 	
icnt2sh_lat_table:0 	0 	0 	5104 	3966 	1931 	237 	0 	0 	115 	274 	649 	1679 	3523 	3660 	11031 	22364 	9328 	0 	0 	0 	0 	0 	0 	
mf_lat_pw_table:0 	0 	0 	0 	0 	0 	0 	235 	9 	4 	30 	1 	0 	0 	0 	0 	0 	0 	0 	0 	0 	0 	0 	0 	0 	0 	0 	0 	0 	0 	0 	0 	
maximum concurrent accesses to same row:
dram[0]:        46        56        36        34        26        20        39        22        37        20        18        13        26        29        26        20 
dram[1]:        52        54        34        32        20        22        32        46        30        22        16        19        17        18        20        20 
dram[2]:        62        62        60        56        28        28        24        38        26        22        14        16        23        18        20        20 
dram[3]:        60        62        62        60        26        30        52        37        27        18        43        13        36        14        37        20 
dram[4]:        62        64        60        54        32        32        36        21        26        24        23        19        21        17        18        23 
dram[5]:        62        62        60        56        28        34        25        43        20        24        16        35        21        23        27        18 
maximum service time to same row:
dram[0]:     15170     15863     21859     17905     19416     17233     18639     20584     18766     21635     51791     20024     22701     23101     22312     19724 
dram[1]:     22219     13266     18690     18289     16599     16728     17224     20260     18513     18354     35243     43950     37901     38371     36304     27278 
dram[2]:     16669     13725     17766     31389     16852     23637     17888     18506     21694     19817     35265     19000     20726     29482     25510     35825 
dram[3]:     18573     16287     33260     31420     16958     16860     17291     16563     21646     17826     39226     19824     22921     35200     19272     21138 
dram[4]:     12650     15866     30267     29113     16331     28940     16319     20481     18341     21716     45383     35349     34938     45045     22300     19922 
dram[5]:     25149     15564     30262     30308     16268     30448     15650     21903     17150     20783     21335     27675     20975     27596     21451     24987 
average row accesses per activate:
dram[0]:  4.969231  5.216667  4.661290  5.436364  3.730337  3.224299  4.304878  3.401786  3.646465  3.702970  3.760870  3.108108  4.271605  4.863014  4.622951  3.814815 
dram[1]:  4.597222  5.109375  3.851351  5.510204  3.105263  3.612500  3.587629  4.000000  3.310924  3.606061  3.701149  3.620690  3.880000  3.977011  4.500000  4.442623 
dram[2]:  5.415094  5.849057  5.366667  6.871795  3.814815  3.505376  3.422018  4.703125  3.471154  4.312500  3.017094  3.847059  4.209877  4.341177  6.106383  4.515625 
dram[3]:  6.500000  5.684210  7.593750  7.692307  3.320988  3.203390  3.952941  4.080460  4.797101  3.243478  3.483146  3.101852  4.108108  3.942529  5.622222  4.287671 
dram[4]:  4.828571  5.839286  6.850000  6.080000  3.593750  3.533981  3.771739  4.044445  3.495727  3.555556  3.741176  3.505376  3.907217  3.680000  4.439394  4.903226 
dram[5]:  5.312500  5.380952  5.473684  7.108108  3.378641  3.360000  2.954545  4.911765  3.504348  3.385965  3.458716  4.400000  3.806123  4.506667  4.742857  4.844828 
average row locality = 31664/7739 = 4.091485
number of total memory accesses made:
dram[0]:         0         0         0         0         0         0         0         0         0         0         0         0         0         0         0         0 
dram[1]:         0         0         0         0         0         0         0         0         0         0         0         0         0         0         0         0 
dram[2]:         0         0         0         0         0         0         0         0         0         0         0         0         0         0         0         0 
dram[3]:         0         0         0         0         0         0         0         0         0         0         0         0         0         0         0         0 
dram[4]:         0         0         0         0         0         0         0         0         0         0         0         0         0         0         0         0 
dram[5]:         0         0         0         0         0         0         0         0         0         0         0         0         0         0         0         0 
total accesses: 0
min_bank_accesses = 0!
min_chip_accesses = 0!
number of total read accesses:
dram[0]:       147       136       124       128       135       146       143       153       147       152       136       142       143       146       125       134 
dram[1]:       150       143       121       116       145       122       143       132       163       146       134       126       160       144       124       122 
dram[2]:       126       138       138       116       129       136       149       124       149       141       151       133       144       158       126       126 
dram[3]:       117       139       104       128       111       153       134       144       135       151       127       140       133       145       113       134 
dram[4]:       148       144       119       128       143       146       143       148       167       157       127       136       155       154       128       133 
dram[5]:       147       150       134       114       147       136       160       134       165       154       154       122       154       144       143       124 
total reads: 13278
bank skew: 167/104 = 1.61
chip skew: 2282/2108 = 1.08
number of total write accesses:
dram[0]:       176       177       165       171       197       199       210       228       214       222       210       203       203       209       157       175 
dram[1]:       181       184       164       154       209       167       205       204       231       211       188       189       228       202       155       149 
dram[2]:       161       172       184       152       180       190       224       177       212       204       202       194       197       211       161       163 
dram[3]:       143       185       139       172       158       225       202       211       196       222       183       195       171       198       140       179 
dram[4]:       190       183       155       176       202       218       204       216       242       227       191       190       224       214       165       171 
dram[5]:       193       189       178       149       201       200       230       200       238       232       223       186       219       194       189       157 
total reads: 18386
bank skew: 242/139 = 1.74
chip skew: 3178/2919 = 1.09
average mf latency per bank:
dram[0]:        668       521       733       622       719       609       809       642       655       597       654       644       666       618       695       610
dram[1]:        652       520       616       656       567       669       664       670       503       577       619       614       516       576       618       622
dram[2]:        682       611       692       781       762       694       720       887       679       661       651       645       662       582       681       610
dram[3]:        629       590       793       683       733       558       700       688       663       569       653       589       644       593       690       531
dram[4]:        588       547       820       702       698       681       827       769       620       632       737       726       639       638       679       662
dram[5]:        538       514       661       714       594       629       617       720       547       575       579       680       573       620       563       664
maximum mf latency per bank:
dram[0]:       2288      1438      2813      1965      2695      2360      2291      2107      2271      2053      2364      2390      2604      2258      2326      2007
dram[1]:       1686      1646      2208      2013      2531      1969      2131      2059      1805      1522      1897      1518      1505      1700      1580      1575
dram[2]:       2350      2228      2762      2783      2750      2455      2696      2941      3496      2837      2317      2458      2416      2195      2273      2051
dram[3]:       2332      2510      2501      3092      2271      2776      2701      2901      3001      2778      1993      2943      2775      2213      2065      2359
dram[4]:       2559      2636      3044      3103      2867      2815      2666      2537      2528      2319      2218      2276      2519      2269      2334      2124
dram[5]:       2724      2504      3021      2736      2735      2831      2354      2416      2150      2379      2194      2277      2243      2048      2021      2092

Number of Memory Banks Accessed per Memory Operation per Warp (from 0):
0	0	0	0	0	0	0	0	0	0	0	0	0	0	0	0	0	0	0	0	0	0	0	0	0	0	0	0	0	0	0	0	0	0	0	0	0	0	0	0	0	0	0	0	0	0	0	0	0	0	0	0	0	0	0	0	0	0	0	0	0	0	0	0	0	0	0	0	0	0	0	0	0	0	0	0	0	0	0	0	0	0	0	0	0	0	0	0	0	0	0	0	0	0	0	0	
Average # of Memory Banks Accessed per Memory Operation per Warp=-nan

position of mrq chosen
0	0	0	0	0	0	0	0	0	0	0	0	0	0	0	0	

average position of mrq chosen = -nan
Memory Partition 0: 
Cache L2_bank_000:
MSHR contents

Cache L2_bank_001:
MSHR contents

In Dram Latency Queue (total = 0): 
DRAM[0]: 16 bks, busW=2 BL=8 CL=12, tRRD=2 tCCD=6, tRCD=12 tRAS=28 tRP=12 tRC=40
n_cmd=196989 n_nop=173854 n_act=1331 n_pre=1315 n_req=5353 n_rd=8948 n_write=11541 bw_util=0.208
n_activity=71860 dram_eff=0.5702
bk0: 588a 181385i bk1: 544a 183869i bk2: 496a 180912i bk3: 512a 181027i bk4: 540a 176481i bk5: 584a 175581i bk6: 572a 175500i bk7: 612a 173669i bk8: 588a 178265i bk9: 608a 178056i bk10: 544a 179417i bk11: 568a 177017i bk12: 572a 178461i bk13: 584a 177086i bk14: 500a 179444i bk15: 536a 179524i 
dram_util_bins: 0 0 0 0 0 0 0 0 0 0
dram_eff_bins: 0 0 0 0 0 0 0 0 0 0
mrqq: max=16 avg=2.37501
Memory Partition 1: 
Cache L2_bank_002:
MSHR contents

Cache L2_bank_003:
MSHR contents

In Dram Latency Queue (total = 0): 
DRAM[1]: 16 bks, busW=2 BL=8 CL=12, tRRD=2 tCCD=6, tRCD=12 tRAS=28 tRP=12 tRC=40
n_cmd=196989 n_nop=174443 n_act=1336 n_pre=1320 n_req=5212 n_rd=8764 n_write=11126 bw_util=0.2019
n_activity=70110 dram_eff=0.5674
bk0: 600a 181466i bk1: 572a 181899i bk2: 484a 180509i bk3: 464a 182142i bk4: 580a 175949i bk5: 488a 178327i bk6: 572a 176273i bk7: 528a 176265i bk8: 652a 178700i bk9: 584a 177764i bk10: 536a 177914i bk11: 504a 179200i bk12: 640a 176906i bk13: 576a 178210i bk14: 496a 180285i bk15: 488a 181829i 
dram_util_bins: 0 0 0 0 0 0 0 0 0 0
dram_eff_bins: 0 0 0 0 0 0 0 0 0 0
mrqq: max=16 avg=2.14094
Memory Partition 2: 
Cache L2_bank_004:
MSHR contents

Cache L2_bank_005:
MSHR contents

In Dram Latency Queue (total = 0): 
DRAM[2]: 16 bks, busW=2 BL=8 CL=12, tRRD=2 tCCD=6, tRCD=12 tRAS=28 tRP=12 tRC=40
n_cmd=196989 n_nop=174831 n_act=1215 n_pre=1199 n_req=5168 n_rd=8736 n_write=11008 bw_util=0.2005
n_activity=69702 dram_eff=0.5665
bk0: 504a 183442i bk1: 552a 183332i bk2: 552a 180343i bk3: 464a 182894i bk4: 516a 179166i bk5: 544a 177415i bk6: 596a 174939i bk7: 496a 176349i bk8: 596a 178541i bk9: 564a 179096i bk10: 604a 178239i bk11: 532a 179349i bk12: 576a 178924i bk13: 632a 177895i bk14: 504a 181264i bk15: 504a 181362i 
dram_util_bins: 0 0 0 0 0 0 0 0 0 0
dram_eff_bins: 0 0 0 0 0 0 0 0 0 0
mrqq: max=16 avg=2.25832
Memory Partition 3: 
Cache L2_bank_006:
MSHR contents

Cache L2_bank_007:
MSHR contents

In Dram Latency Queue (total = 0): 
DRAM[3]: 16 bks, busW=2 BL=8 CL=12, tRRD=2 tCCD=6, tRCD=12 tRAS=28 tRP=12 tRC=40
n_cmd=196989 n_nop=175439 n_act=1199 n_pre=1183 n_req=5027 n_rd=8432 n_write=10736 bw_util=0.1946
n_activity=69822 dram_eff=0.5491
bk0: 468a 184463i bk1: 556a 182843i bk2: 416a 183955i bk3: 512a 182785i bk4: 444a 181069i bk5: 612a 178301i bk6: 536a 178249i bk7: 576a 175765i bk8: 540a 179622i bk9: 604a 177946i bk10: 508a 180336i bk11: 560a 180013i bk12: 532a 181216i bk13: 580a 177996i bk14: 452a 182880i bk15: 536a 180852i 
dram_util_bins: 0 0 0 0 0 0 0 0 0 0
dram_eff_bins: 0 0 0 0 0 0 0 0 0 0
mrqq: max=16 avg=2.09819
Memory Partition 4: 
Cache L2_bank_008:
MSHR contents

Cache L2_bank_009:
MSHR contents

In Dram Latency Queue (total = 0): 
DRAM[4]: 16 bks, busW=2 BL=8 CL=12, tRRD=2 tCCD=6, tRCD=12 tRAS=28 tRP=12 tRC=40
n_cmd=196989 n_nop=173536 n_act=1325 n_pre=1309 n_req=5444 n_rd=9104 n_write=11715 bw_util=0.2114
n_activity=71916 dram_eff=0.579
bk0: 592a 181392i bk1: 576a 181551i bk2: 476a 182824i bk3: 512a 181041i bk4: 572a 176331i bk5: 584a 174615i bk6: 572a 174918i bk7: 592a 173477i bk8: 668a 175597i bk9: 628a 176939i bk10: 508a 179178i bk11: 544a 178600i bk12: 620a 175025i bk13: 616a 175774i bk14: 512a 180417i bk15: 532a 179831i 
dram_util_bins: 0 0 0 0 0 0 0 0 0 0
dram_eff_bins: 0 0 0 0 0 0 0 0 0 0
mrqq: max=16 avg=2.4529
Memory Partition 5: 
Cache L2_bank_010:
MSHR contents

Cache L2_bank_011:
MSHR contents

In Dram Latency Queue (total = 0): 
DRAM[5]: 16 bks, busW=2 BL=8 CL=12, tRRD=2 tCCD=6, tRCD=12 tRAS=28 tRP=12 tRC=40
n_cmd=196989 n_nop=173456 n_act=1333 n_pre=1317 n_req=5460 n_rd=9128 n_write=11755 bw_util=0.212
n_activity=73972 dram_eff=0.5646
bk0: 588a 181282i bk1: 600a 180977i bk2: 536a 180881i bk3: 456a 183002i bk4: 588a 177516i bk5: 544a 177165i bk6: 640a 172562i bk7: 536a 177445i bk8: 660a 176241i bk9: 616a 176346i bk10: 616a 175078i bk11: 488a 180049i bk12: 616a 176083i bk13: 576a 177538i bk14: 572a 178809i bk15: 496a 179329i 
dram_util_bins: 0 0 0 0 0 0 0 0 0 0
dram_eff_bins: 0 0 0 0 0 0 0 0 0 0
mrqq: max=16 avg=2.4273

========= L2 cache stats =========
L2_cache_bank[0]: Access = 6728, Miss = 1100, Miss_rate = 0.163, Pending_hits = 100, Reservation_fails = 1493
L2_cache_bank[1]: Access = 6864, Miss = 1137, Miss_rate = 0.166, Pending_hits = 73, Reservation_fails = 707
L2_cache_bank[2]: Access = 6716, Miss = 1140, Miss_rate = 0.170, Pending_hits = 91, Reservation_fails = 1060
L2_cache_bank[3]: Access = 6796, Miss = 1051, Miss_rate = 0.155, Pending_hits = 84, Reservation_fails = 403
L2_cache_bank[4]: Access = 6647, Miss = 1112, Miss_rate = 0.167, Pending_hits = 88, Reservation_fails = 1312
L2_cache_bank[5]: Access = 6788, Miss = 1072, Miss_rate = 0.158, Pending_hits = 72, Reservation_fails = 405
L2_cache_bank[6]: Access = 6820, Miss = 974, Miss_rate = 0.143, Pending_hits = 88, Reservation_fails = 415
L2_cache_bank[7]: Access = 7001, Miss = 1134, Miss_rate = 0.162, Pending_hits = 75, Reservation_fails = 700
L2_cache_bank[8]: Access = 7059, Miss = 1130, Miss_rate = 0.160, Pending_hits = 78, Reservation_fails = 559
L2_cache_bank[9]: Access = 6811, Miss = 1146, Miss_rate = 0.168, Pending_hits = 82, Reservation_fails = 358
L2_cache_bank[10]: Access = 7036, Miss = 1204, Miss_rate = 0.171, Pending_hits = 63, Reservation_fails = 525
L2_cache_bank[11]: Access = 6798, Miss = 1078, Miss_rate = 0.159, Pending_hits = 102, Reservation_fails = 445
L2_total_cache_accesses = 82064
L2_total_cache_misses = 13278
L2_total_cache_miss_rate = 0.1618
L2_total_cache_pending_hits = 996
L2_total_cache_reservation_fails = 8382
L2_total_cache_breakdown:
	L2_cache_stats_breakdown[GLOBAL_ACC_R][HIT] = 3673
	L2_cache_stats_breakdown[GLOBAL_ACC_R][HIT_RESERVED] = 17
	L2_cache_stats_breakdown[GLOBAL_ACC_R][MISS] = 145
	L2_cache_stats_breakdown[GLOBAL_ACC_R][RESERVATION_FAIL] = 365
	L2_cache_stats_breakdown[LOCAL_ACC_R][HIT] = 6772
	L2_cache_stats_breakdown[LOCAL_ACC_R][HIT_RESERVED] = 143
	L2_cache_stats_breakdown[LOCAL_ACC_R][MISS] = 458
	L2_cache_stats_breakdown[CONST_ACC_R][HIT] = 22
	L2_cache_stats_breakdown[CONST_ACC_R][HIT_RESERVED] = 6
	L2_cache_stats_breakdown[CONST_ACC_R][MISS] = 2
	L2_cache_stats_breakdown[CONST_ACC_R][RESERVATION_FAIL] = 780
	L2_cache_stats_breakdown[GLOBAL_ACC_W][HIT] = 5482
	L2_cache_stats_breakdown[GLOBAL_ACC_W][HIT_RESERVED] = 662
	L2_cache_stats_breakdown[GLOBAL_ACC_W][MISS] = 2048
	L2_cache_stats_breakdown[GLOBAL_ACC_W][RESERVATION_FAIL] = 36
	L2_cache_stats_breakdown[LOCAL_ACC_W][HIT] = 35104
	L2_cache_stats_breakdown[LOCAL_ACC_W][HIT_RESERVED] = 16
	L2_cache_stats_breakdown[LOCAL_ACC_W][MISS] = 9311
	L2_cache_stats_breakdown[LOCAL_ACC_W][RESERVATION_FAIL] = 248
	L2_cache_stats_breakdown[L1_WRBK_ACC][HIT] = 3768
	L2_cache_stats_breakdown[L1_WRBK_ACC][MISS] = 1262
	L2_cache_stats_breakdown[L1_WRBK_ACC][RESERVATION_FAIL] = 2
	L2_cache_stats_breakdown[INST_ACC_R][HIT] = 12969
	L2_cache_stats_breakdown[INST_ACC_R][HIT_RESERVED] = 152
	L2_cache_stats_breakdown[INST_ACC_R][MISS] = 52
	L2_cache_stats_breakdown[INST_ACC_R][RESERVATION_FAIL] = 6951
L2_cache_data_port_util = 0.145
L2_cache_fill_port_util = 0.030

icnt_total_pkts_mem_to_simt=174618
icnt_total_pkts_simt_to_mem=293028
LD_mem_lat_dist  0 0 0 0 0 0 0 0 0 0 0 0 0 0 0 0 0 0 0 0 0 0 0 0 0 0 0
ST_mem_lat_dist  0 0 0 0 0 0 0 0 0 0 0 0 0 0 0 0 0 0 0 0 0 0 0 0 0 0 0
----------------------------Interconnect-DETAILS--------------------------------
Class 0:
Packet latency average = 19.5749
	minimum = 6
	maximum = 1482
Network latency average = 15.1454
	minimum = 6
	maximum = 1160
Slowest packet = 664
Flit latency average = 14.6521
	minimum = 6
	maximum = 1156
Slowest flit = 14517
Fragmentation average = 0.268677
	minimum = 0
	maximum = 1071
Injected packet rate average = 0.0394848
	minimum = 0.034764 (at node 0)
	maximum = 0.0444869 (at node 25)
Accepted packet rate average = 0.0394848
	minimum = 0.0334305 (at node 0)
	maximum = 0.0473012 (at node 23)
Injected flit rate average = 0.11606
	minimum = 0.0912118 (at node 19)
	maximum = 0.138721 (at node 8)
Accepted flit rate average= 0.11606
	minimum = 0.0699635 (at node 0)
	maximum = 0.168305 (at node 25)
Injected packet length average = 2.93936
Accepted packet length average = 2.93936
Total in-flight flits = 0 (0 measured)
====== Overall Traffic Statistics ======
====== Traffic class 0 ======
Packet latency average = 19.5749 (1 samples)
	minimum = 6 (1 samples)
	maximum = 1482 (1 samples)
Network latency average = 15.1454 (1 samples)
	minimum = 6 (1 samples)
	maximum = 1160 (1 samples)
Flit latency average = 14.6521 (1 samples)
	minimum = 6 (1 samples)
	maximum = 1156 (1 samples)
Fragmentation average = 0.268677 (1 samples)
	minimum = 0 (1 samples)
	maximum = 1071 (1 samples)
Injected packet rate average = 0.0394848 (1 samples)
	minimum = 0.034764 (1 samples)
	maximum = 0.0444869 (1 samples)
Accepted packet rate average = 0.0394848 (1 samples)
	minimum = 0.0334305 (1 samples)
	maximum = 0.0473012 (1 samples)
Injected flit rate average = 0.11606 (1 samples)
	minimum = 0.0912118 (1 samples)
	maximum = 0.138721 (1 samples)
Accepted flit rate average = 0.11606 (1 samples)
	minimum = 0.0699635 (1 samples)
	maximum = 0.168305 (1 samples)
Injected packet size average = 2.93936 (1 samples)
Accepted packet size average = 2.93936 (1 samples)
Hops average = 1 (1 samples)
----------------------------END-of-Interconnect-DETAILS-------------------------


gpgpu_simulation_time = 0 days, 0 hrs, 2 min, 20 sec (140 sec)
gpgpu_simulation_rate = 447732 (inst/sec)
gpgpu_simulation_rate = 1065 (cycle/sec)
GPGPU-Sim: synchronize waiting for inactive GPU simulation
GPGPU-Sim API: Stream Manager State
GPGPU-Sim: detected inactive GPU simulation thread

checksum=75ef40cb5b8e
Kernel Time: 139201.015625 
