

        *** GPGPU-Sim Simulator Version 3.2.2  [build 0] ***


GPGPU-Sim PTX: simulation mode 0 (can change with PTX_SIM_MODE_FUNC environment variable:
               1=functional simulation only, 0=detailed performance simulator)
GPGPU-Sim: Configuration options:

-network_mode                           1 # Interconnection network mode
-inter_config_file   config_fermi_islip.icnt # Interconnection network config file
-gpgpu_ptx_use_cuobjdump                    1 # Use cuobjdump to extract ptx and sass from binaries
-gpgpu_experimental_lib_support                    0 # Try to extract code from cuda libraries [Broken because of unknown cudaGetExportTable]
-gpgpu_ptx_convert_to_ptxplus                    0 # Convert SASS (native ISA) to ptxplus and run ptxplus
-gpgpu_ptx_force_max_capability                   20 # Force maximum compute capability
-gpgpu_ptx_inst_debug_to_file                    0 # Dump executed instructions' debug information to file
-gpgpu_ptx_inst_debug_file       inst_debug.txt # Executed instructions' debug output file
-gpgpu_ptx_inst_debug_thread_uid                    1 # Thread UID for executed instructions' debug output
-gpgpu_simd_model                       1 # 1 = post-dominator
-gpgpu_shader_core_pipeline              1536:32 # shader core pipeline config, i.e., {<nthread>:<warpsize>}
-gpgpu_tex_cache:l1  4:128:24,L:R:m:N:L,F:128:4,128:2 # per-shader L1 texture cache  (READ-ONLY) config  {<nsets>:<bsize>:<assoc>,<rep>:<wr>:<alloc>:<wr_alloc>,<mshr>:<N>:<merge>,<mq>:<rf>}
-gpgpu_const_cache:l1 64:64:2,L:R:f:N:L,A:2:32,4 # per-shader L1 constant memory cache  (READ-ONLY) config  {<nsets>:<bsize>:<assoc>,<rep>:<wr>:<alloc>:<wr_alloc>,<mshr>:<N>:<merge>,<mq>} 
-gpgpu_cache:il1     4:128:4,L:R:f:N:L,A:2:32,4 # shader L1 instruction cache config  {<nsets>:<bsize>:<assoc>,<rep>:<wr>:<alloc>:<wr_alloc>,<mshr>:<N>:<merge>,<mq>} 
-gpgpu_cache:dl1     32:128:4,L:L:m:N:H,A:32:8,8 # per-shader L1 data cache config  {<nsets>:<bsize>:<assoc>,<rep>:<wr>:<alloc>:<wr_alloc>,<mshr>:<N>:<merge>,<mq> | none}
-gpgpu_cache:dl1PrefL1                 none # per-shader L1 data cache config  {<nsets>:<bsize>:<assoc>,<rep>:<wr>:<alloc>:<wr_alloc>,<mshr>:<N>:<merge>,<mq> | none}
-gpgpu_cache:dl1PreShared                 none # per-shader L1 data cache config  {<nsets>:<bsize>:<assoc>,<rep>:<wr>:<alloc>:<wr_alloc>,<mshr>:<N>:<merge>,<mq> | none}
-gmem_skip_L1D                          0 # global memory access skip L1D cache (implements -Xptxas -dlcm=cg, default=no skip)
-gpgpu_perfect_mem                      0 # enable perfect memory mode (no cache miss)
-n_regfile_gating_group                    4 # group of lanes that should be read/written together)
-gpgpu_clock_gated_reg_file                    0 # enable clock gated reg file for power calculations
-gpgpu_clock_gated_lanes                    0 # enable clock gated lanes for power calculations
-gpgpu_shader_registers                32768 # Number of registers per shader core. Limits number of concurrent CTAs. (default 8192)
-gpgpu_shader_cta                       8 # Maximum number of concurrent CTAs in shader (default 8)
-gpgpu_num_cta_barriers                   16 # Maximum number of named barriers per CTA (default 16)
-gpgpu_n_clusters                      15 # number of processing clusters
-gpgpu_n_cores_per_cluster                    1 # number of simd cores per cluster
-gpgpu_n_cluster_ejection_buffer_size                    8 # number of packets in ejection buffer
-gpgpu_n_ldst_response_buffer_size                    2 # number of response packets in ld/st unit ejection buffer
-gpgpu_shmem_size                   16384 # Size of shared memory per shader core (default 16kB)
-gpgpu_shmem_size                   49152 # Size of shared memory per shader core (default 16kB)
-gpgpu_shmem_size_PrefL1                16384 # Size of shared memory per shader core (default 16kB)
-gpgpu_shmem_size_PrefShared                16384 # Size of shared memory per shader core (default 16kB)
-gpgpu_shmem_num_banks                   32 # Number of banks in the shared memory in each shader core (default 16)
-gpgpu_shmem_limited_broadcast                    0 # Limit shared memory to do one broadcast per cycle (default on)
-gpgpu_shmem_warp_parts                    1 # Number of portions a warp is divided into for shared memory bank conflict check 
-gpgpu_warpdistro_shader                   -1 # Specify which shader core to collect the warp size distribution from
-gpgpu_warp_issue_shader                    0 # Specify which shader core to collect the warp issue distribution from
-gpgpu_local_mem_map                    1 # Mapping from local memory space address to simulated GPU physical address space (default = enabled)
-gpgpu_num_reg_banks                   16 # Number of register banks (default = 8)
-gpgpu_reg_bank_use_warp_id                    0 # Use warp ID in mapping registers to banks (default = off)
-gpgpu_operand_collector_num_units_sp                    6 # number of collector units (default = 4)
-gpgpu_operand_collector_num_units_sfu                    8 # number of collector units (default = 4)
-gpgpu_operand_collector_num_units_mem                    2 # number of collector units (default = 2)
-gpgpu_operand_collector_num_units_gen                    0 # number of collector units (default = 0)
-gpgpu_operand_collector_num_in_ports_sp                    2 # number of collector unit in ports (default = 1)
-gpgpu_operand_collector_num_in_ports_sfu                    1 # number of collector unit in ports (default = 1)
-gpgpu_operand_collector_num_in_ports_mem                    1 # number of collector unit in ports (default = 1)
-gpgpu_operand_collector_num_in_ports_gen                    0 # number of collector unit in ports (default = 0)
-gpgpu_operand_collector_num_out_ports_sp                    2 # number of collector unit in ports (default = 1)
-gpgpu_operand_collector_num_out_ports_sfu                    1 # number of collector unit in ports (default = 1)
-gpgpu_operand_collector_num_out_ports_mem                    1 # number of collector unit in ports (default = 1)
-gpgpu_operand_collector_num_out_ports_gen                    0 # number of collector unit in ports (default = 0)
-gpgpu_coalesce_arch                   13 # Coalescing arch (default = 13, anything else is off for now)
-gpgpu_num_sched_per_core                    2 # Number of warp schedulers per core
-gpgpu_max_insn_issue_per_warp                    1 # Max number of instructions that can be issued per warp in one cycle by scheduler
-gpgpu_simt_core_sim_order                    1 # Select the simulation order of cores in a cluster (0=Fix, 1=Round-Robin)
-gpgpu_pipeline_widths        2,1,1,2,1,1,2 # Pipeline widths ID_OC_SP,ID_OC_SFU,ID_OC_MEM,OC_EX_SP,OC_EX_SFU,OC_EX_MEM,EX_WB
-gpgpu_num_sp_units                     2 # Number of SP units (default=1)
-gpgpu_num_sfu_units                    1 # Number of SF units (default=1)
-gpgpu_num_mem_units                    1 # Number if ldst units (default=1) WARNING: not hooked up to anything
-gpgpu_scheduler                      gto # Scheduler configuration: < lrr | gto | two_level_active > If two_level_active:<num_active_warps>:<inner_prioritization>:<outer_prioritization>For complete list of prioritization values see shader.h enum scheduler_prioritization_typeDefault: gto
-gpgpu_dram_scheduler                    1 # 0 = fifo, 1 = FR-FCFS (defaul)
-gpgpu_dram_partition_queues              8:8:8:8 # i2$:$2d:d2$:$2i
-l2_ideal                               0 # Use a ideal L2 cache that always hit
-gpgpu_cache:dl2     64:128:8,L:B:m:W:L,A:32:4,4:0,32 # unified banked L2 data cache config  {<nsets>:<bsize>:<assoc>,<rep>:<wr>:<alloc>:<wr_alloc>,<mshr>:<N>:<merge>,<mq>}
-gpgpu_cache:dl2_texture_only                    0 # L2 cache used for texture only
-gpgpu_n_mem                            6 # number of memory modules (e.g. memory controllers) in gpu
-gpgpu_n_sub_partition_per_mchannel                    2 # number of memory subpartition in each memory module
-gpgpu_n_mem_per_ctrlr                    2 # number of memory chips per memory controller
-gpgpu_memlatency_stat                   14 # track and display latency statistics 0x2 enables MC, 0x4 enables queue logs
-gpgpu_frfcfs_dram_sched_queue_size                   16 # 0 = unlimited (default); # entries per chip
-gpgpu_dram_return_queue_size                  116 # 0 = unlimited (default); # entries per chip
-gpgpu_dram_buswidth                    1 # default = 4 bytes (8 bytes per cycle at DDR)
-gpgpu_dram_burst_length                    8 # Burst length of each DRAM request (default = 4 data bus cycle)
-dram_data_command_freq_ratio                    4 # Frequency ratio between DRAM data bus and command bus (default = 2 times, i.e. DDR)
-gpgpu_dram_timing_opt nbk=16:CCD=2:RRD=6:RCD=12:RAS=28:RP=12:RC=40: CL=12:WL=4:CDLR=5:WR=12:nbkgrp=4:CCDL=3:RTPL=2 # DRAM timing parameters = {nbk:tCCD:tRRD:tRCD:tRAS:tRP:tRC:CL:WL:tCDLR:tWR:nbkgrp:tCCDL:tRTPL}
-rop_latency                          120 # ROP queue latency (default 85)
-dram_latency                         100 # DRAM latency (default 30)
-gpgpu_mem_addr_mapping dramid@8;00000000.00000000.00000000.00000000.0000RRRR.RRRRRRRR.BBBCCCCB.CCSSSSSS # mapping memory address to dram model {dramid@<start bit>;<memory address map>}
-gpgpu_mem_addr_test                    0 # run sweep test to check address mapping for aliased address
-gpgpu_mem_address_mask                    1 # 0 = old addressing mask, 1 = new addressing mask, 2 = new add. mask + flipped bank sel and chip sel bits
-gpuwattch_xml_file  gpuwattch_gtx480.xml # GPUWattch XML file
-power_simulation_enabled                    1 # Turn on power simulator (1=On, 0=Off)
-power_per_cycle_dump                    0 # Dump detailed power output each cycle
-power_trace_enabled                    0 # produce a file for the power trace (1=On, 0=Off)
-power_trace_zlevel                     6 # Compression level of the power trace output log (0=no comp, 9=highest)
-steady_power_levels_enabled                    0 # produce a file for the steady power levels (1=On, 0=Off)
-steady_state_definition                  8:4 # allowed deviation:number of samples
-gpgpu_max_cycle                        0 # terminates gpu simulation early (0 = no limit)
-gpgpu_max_insn                         0 # terminates gpu simulation early (0 = no limit)
-gpgpu_max_cta                          0 # terminates gpu simulation early (0 = no limit)
-gpgpu_runtime_stat                   500 # display runtime statistics such as dram utilization {<freq>:<flag>}
-liveness_message_freq                    1 # Minimum number of seconds between simulation liveness messages (0 = always print)
-gpgpu_flush_l1_cache                    0 # Flush L1 cache at the end of each kernel call
-gpgpu_flush_l2_cache                    0 # Flush L2 cache at the end of each kernel call
-gpgpu_deadlock_detect                    1 # Stop the simulation at deadlock (1=on (default), 0=off)
-gpgpu_ptx_instruction_classification                    0 # if enabled will classify ptx instruction types per kernel (Max 255 kernels now)
-gpgpu_ptx_sim_mode                     0 # Select between Performance (default) or Functional simulation (1)
-gpgpu_clock_domains 700.0:700.0:700.0:924.0 # Clock Domain Frequencies in MhZ {<Core Clock>:<ICNT Clock>:<L2 Clock>:<DRAM Clock>}
-gpgpu_max_concurrent_kernel                    8 # maximum kernels that can run concurrently on GPU
-gpgpu_cflog_interval                    0 # Interval between each snapshot in control flow logger
-visualizer_enabled                     0 # Turn on visualizer output (1=On, 0=Off)
-visualizer_outputfile                 NULL # Specifies the output log file for visualizer
-visualizer_zlevel                      6 # Compression level of the visualizer output log (0=no comp, 9=highest)
-trace_enabled                          0 # Turn on traces
-trace_components                    none # comma seperated list of traces to enable. Complete list found in trace_streams.tup. Default none
-trace_sampling_core                    0 # The core which is printed using CORE_DPRINTF. Default 0
-trace_sampling_memory_partition                   -1 # The memory partition which is printed using MEMPART_DPRINTF. Default -1 (i.e. all)
-enable_ptx_file_line_stats                    1 # Turn on PTX source line statistic profiling. (1 = On)
-ptx_line_stats_filename gpgpu_inst_stats.txt # Output file for PTX source line statistics.
-save_embedded_ptx                      0 # saves ptx files embedded in binary as <n>.ptx
-keep                                   0 # keep intermediate files created by GPGPU-Sim when interfacing with external programs
-gpgpu_ptx_save_converted_ptxplus                    0 # Saved converted ptxplus to a file
-ptx_opcode_latency_int         4,13,4,5,145 # Opcode latencies for integers <ADD,MAX,MUL,MAD,DIV>Default 1,1,19,25,145
-ptx_opcode_latency_fp          4,13,4,5,39 # Opcode latencies for single precision floating points <ADD,MAX,MUL,MAD,DIV>Default 1,1,1,1,30
-ptx_opcode_latency_dp         8,19,8,8,330 # Opcode latencies for double precision floating points <ADD,MAX,MUL,MAD,DIV>Default 8,8,8,8,335
-ptx_opcode_initiation_int            1,2,2,1,8 # Opcode initiation intervals for integers <ADD,MAX,MUL,MAD,DIV>Default 1,1,4,4,32
-ptx_opcode_initiation_fp            1,2,1,1,4 # Opcode initiation intervals for single precision floating points <ADD,MAX,MUL,MAD,DIV>Default 1,1,1,1,5
-ptx_opcode_initiation_dp         8,16,8,8,130 # Opcode initiation intervals for double precision floating points <ADD,MAX,MUL,MAD,DIV>Default 8,8,8,8,130
DRAM Timing Options:
nbk                                    16 # number of banks
CCD                                     2 # column to column delay
RRD                                     6 # minimal delay between activation of rows in different banks
RCD                                    12 # row to column delay
RAS                                    28 # time needed to activate row
RP                                     12 # time needed to precharge (deactivate) row
RC                                     40 # row cycle time
CDLR                                    5 # switching from write to read (changes tWTR)
WR                                     12 # last data-in to row precharge
CL                                     12 # CAS latency
WL                                      4 # Write latency
nbkgrp                                  4 # number of bank groups
CCDL                                    3 # column to column delay between accesses to different bank groups
RTPL                                    2 # read to precharge delay between accesses to different bank groups
Total number of memory sub partition = 12
addr_dec_mask[CHIP]  = 0000000000000000 	high:64 low:0
addr_dec_mask[BK]    = 000000000000e100 	high:16 low:8
addr_dec_mask[ROW]   = 000000000fff0000 	high:28 low:16
addr_dec_mask[COL]   = 0000000000001eff 	high:13 low:0
addr_dec_mask[BURST] = 000000000000003f 	high:6 low:0
sub_partition_id_mask = 0000000000000100
GPGPU-Sim uArch: clock freqs: 700000000.000000:700000000.000000:700000000.000000:924000000.000000
GPGPU-Sim uArch: clock periods: 0.00000000142857142857:0.00000000142857142857:0.00000000142857142857:0.00000000108225108225
*** Initializing Memory Statistics ***
GPGPU-Sim uArch: interconnect node map (shaderID+MemID to icntID)
GPGPU-Sim uArch: Memory nodes ID start from index: 15
GPGPU-Sim uArch:    0   1   2   3   4
GPGPU-Sim uArch:    5   6   7   8   9
GPGPU-Sim uArch:   10  11  12  13  14
GPGPU-Sim uArch:   15  16  17  18  19
GPGPU-Sim uArch:   20  21  22  23  24
GPGPU-Sim uArch:   25  26
GPGPU-Sim uArch: interconnect node reverse map (icntID to shaderID+MemID)
GPGPU-Sim uArch: Memory nodes start from ID: 15
GPGPU-Sim uArch:    0   1   2   3   4
GPGPU-Sim uArch:    5   6   7   8   9
GPGPU-Sim uArch:   10  11  12  13  14
GPGPU-Sim uArch:   15  16  17  18  19
GPGPU-Sim uArch:   20  21  22  23  24
GPGPU-Sim uArch:   25  26
fa24d9d62d9e9d43df0eb292e3b27e2e  /home/scratch/adwait/applications/benchmarks/CUDA/BFS/gpgpu_ptx_sim__BFS
GPGPU-Sim uArch: performance model initialization complete.
GPGPU-Sim PTX: __cudaRegisterFatBinary, fat_cubin_handle = 1, filename=bfs.cu
self exe links to: /home/scratch/adwait/applications/benchmarks/CUDA/BFS/gpgpu_ptx_sim__BFS
Running md5sum using "md5sum /home/scratch/adwait/applications/benchmarks/CUDA/BFS/gpgpu_ptx_sim__BFS "
Running cuobjdump using "$CUDA_INSTALL_PATH/bin/cuobjdump -ptx -elf -sass /home/scratch/adwait/applications/benchmarks/CUDA/BFS/gpgpu_ptx_sim__BFS > _cuobjdump_complete_output_X2fekj"
Parsing file _cuobjdump_complete_output_X2fekj
######### cuobjdump parser ########
## Adding new section ELF
Adding arch: sm_20
Adding identifier: bfs.cu
## Adding new section PTX
Adding ptx filename: _cuobjdump_1.ptx
Adding arch: sm_20
Adding identifier: bfs.cu
Done parsing!!!
GPGPU-Sim PTX: __cudaRegisterFunction _Z6KernelP4NodePiPbS2_S1_S2_i : hostFun 0x0x404fc4, fat_cubin_handle = 1
GPGPU-Sim PTX: instruction assembly for function '_Z6KernelP4NodePiPbS2_S1_S2_i'...   done.
GPGPU-Sim PTX: finding reconvergence points for '_Z6KernelP4NodePiPbS2_S1_S2_i'...
GPGPU-Sim PTX: Finding dominators for '_Z6KernelP4NodePiPbS2_S1_S2_i'...
GPGPU-Sim PTX: Finding immediate dominators for '_Z6KernelP4NodePiPbS2_S1_S2_i'...
GPGPU-Sim PTX: Finding postdominators for '_Z6KernelP4NodePiPbS2_S1_S2_i'...
GPGPU-Sim PTX: Finding immediate postdominators for '_Z6KernelP4NodePiPbS2_S1_S2_i'...
GPGPU-Sim PTX: pre-decoding instructions for '_Z6KernelP4NodePiPbS2_S1_S2_i'...
GPGPU-Sim PTX: reconvergence points for _Z6KernelP4NodePiPbS2_S1_S2_i...
GPGPU-Sim PTX:  1 (potential) branch divergence @  PC=0x030 (_1.ptx:72) @%p1 bra $Lt_0_5122;
GPGPU-Sim PTX:    immediate post dominator      @  PC=0x1e8 (_1.ptx:141) exit;
GPGPU-Sim PTX:  2 (potential) branch divergence @  PC=0x068 (_1.ptx:79) @%p2 bra $Lt_0_5122;
GPGPU-Sim PTX:    immediate post dominator      @  PC=0x1e8 (_1.ptx:141) exit;
GPGPU-Sim PTX:  3 (potential) branch divergence @  PC=0x0e0 (_1.ptx:97) @%p3 bra $Lt_0_5122;
GPGPU-Sim PTX:    immediate post dominator      @  PC=0x1e8 (_1.ptx:141) exit;
GPGPU-Sim PTX:  4 (potential) branch divergence @  PC=0x138 (_1.ptx:111) @%p4 bra $Lt_0_4354;
GPGPU-Sim PTX:    immediate post dominator      @  PC=0x1c8 (_1.ptx:134) add.s32 %r11, %r11, 1;
GPGPU-Sim PTX:  5 (potential) branch divergence @  PC=0x1e0 (_1.ptx:137) @%p5 bra $Lt_0_4098;
GPGPU-Sim PTX:    immediate post dominator      @  PC=0x1e8 (_1.ptx:141) exit;
GPGPU-Sim PTX: ... end of reconvergence points for _Z6KernelP4NodePiPbS2_S1_S2_i
GPGPU-Sim PTX: ... done pre-decoding instructions for '_Z6KernelP4NodePiPbS2_S1_S2_i'.
GPGPU-Sim PTX: finished parsing EMBEDDED .ptx file _1.ptx
Adding _cuobjdump_1.ptx with cubin handle 1
GPGPU-Sim PTX: extracting embedded .ptx to temporary file "_ptx_RF2WGq"
Running: cat _ptx_RF2WGq | sed 's/.version 1.5/.version 1.4/' | sed 's/, texmode_independent//' | sed 's/\(\.extern \.const\[1\] .b8 \w\+\)\[\]/\1\[1\]/' | sed 's/const\[.\]/const\[0\]/g' > _ptx2_4mc03x
GPGPU-Sim PTX: generating ptxinfo using "$CUDA_INSTALL_PATH/bin/ptxas --gpu-name=sm_20 -v _ptx2_4mc03x --output-file  /dev/null 2> _ptx_RF2WGqinfo"
GPGPU-Sim PTX: Kernel '_Z6KernelP4NodePiPbS2_S1_S2_i' : regs=18, lmem=0, smem=0, cmem=84
GPGPU-Sim PTX: removing ptxinfo using "rm -f _ptx_RF2WGq _ptx2_4mc03x _ptx_RF2WGqinfo"
GPGPU-Sim PTX: loading globals with explicit initializers... 
GPGPU-Sim PTX: finished loading globals (0 bytes total).
GPGPU-Sim PTX: loading constants with explicit initializers...  done.
Reading File
Input file: ./data/graph65536.txt
Read File
Copied Everything to GPU memory

GPGPU-Sim PTX: cudaLaunch for 0x0x404fc4 (mode=performance simulation) on stream 0
GPGPU-Sim PTX: pushing kernel '_Z6KernelP4NodePiPbS2_S1_S2_i' to stream 0, gridDim= (256,1,1) blockDim = (256,1,1) 
kernel '_Z6KernelP4NodePiPbS2_S1_S2_i' transfer to GPU hardware scheduler
GPGPU-Sim uArch: Shader 1 bind to kernel 1 '_Z6KernelP4NodePiPbS2_S1_S2_i'
GPGPU-Sim uArch: CTA/core = 6, limited by: threads regs
GPGPU-Sim uArch: core:  1, cta: 0 initialized @(1,0)
GPGPU-Sim uArch: Shader 2 bind to kernel 1 '_Z6KernelP4NodePiPbS2_S1_S2_i'
GPGPU-Sim uArch: core:  2, cta: 0 initialized @(1,0)
GPGPU-Sim uArch: Shader 3 bind to kernel 1 '_Z6KernelP4NodePiPbS2_S1_S2_i'
GPGPU-Sim uArch: core:  3, cta: 0 initialized @(1,0)
GPGPU-Sim uArch: Shader 4 bind to kernel 1 '_Z6KernelP4NodePiPbS2_S1_S2_i'
GPGPU-Sim uArch: core:  4, cta: 0 initialized @(1,0)
GPGPU-Sim uArch: Shader 5 bind to kernel 1 '_Z6KernelP4NodePiPbS2_S1_S2_i'
GPGPU-Sim uArch: core:  5, cta: 0 initialized @(1,0)
GPGPU-Sim uArch: Shader 6 bind to kernel 1 '_Z6KernelP4NodePiPbS2_S1_S2_i'
GPGPU-Sim uArch: core:  6, cta: 0 initialized @(1,0)
GPGPU-Sim uArch: Shader 7 bind to kernel 1 '_Z6KernelP4NodePiPbS2_S1_S2_i'
GPGPU-Sim uArch: core:  7, cta: 0 initialized @(1,0)
GPGPU-Sim uArch: Shader 8 bind to kernel 1 '_Z6KernelP4NodePiPbS2_S1_S2_i'
GPGPU-Sim uArch: core:  8, cta: 0 initialized @(1,0)
GPGPU-Sim uArch: Shader 9 bind to kernel 1 '_Z6KernelP4NodePiPbS2_S1_S2_i'
GPGPU-Sim uArch: core:  9, cta: 0 initialized @(1,0)
GPGPU-Sim uArch: Shader 10 bind to kernel 1 '_Z6KernelP4NodePiPbS2_S1_S2_i'
GPGPU-Sim uArch: core: 10, cta: 0 initialized @(1,0)
GPGPU-Sim uArch: Shader 11 bind to kernel 1 '_Z6KernelP4NodePiPbS2_S1_S2_i'
GPGPU-Sim uArch: core: 11, cta: 0 initialized @(1,0)
GPGPU-Sim uArch: Shader 12 bind to kernel 1 '_Z6KernelP4NodePiPbS2_S1_S2_i'
GPGPU-Sim uArch: core: 12, cta: 0 initialized @(1,0)
GPGPU-Sim uArch: Shader 13 bind to kernel 1 '_Z6KernelP4NodePiPbS2_S1_S2_i'
GPGPU-Sim uArch: core: 13, cta: 0 initialized @(1,0)
GPGPU-Sim uArch: Shader 14 bind to kernel 1 '_Z6KernelP4NodePiPbS2_S1_S2_i'
GPGPU-Sim uArch: core: 14, cta: 0 initialized @(1,0)
GPGPU-Sim uArch: Shader 0 bind to kernel 1 '_Z6KernelP4NodePiPbS2_S1_S2_i'
GPGPU-Sim uArch: core:  0, cta: 0 initialized @(1,0)
GPGPU-Sim uArch: core:  1, cta: 1 initialized @(2,0)
GPGPU-Sim uArch: core:  2, cta: 1 initialized @(2,0)
GPGPU-Sim uArch: core:  3, cta: 1 initialized @(2,0)
GPGPU-Sim uArch: core:  4, cta: 1 initialized @(2,0)
GPGPU-Sim uArch: core:  5, cta: 1 initialized @(2,0)
GPGPU-Sim uArch: core:  6, cta: 1 initialized @(2,0)
GPGPU-Sim uArch: core:  7, cta: 1 initialized @(2,0)
GPGPU-Sim uArch: core:  8, cta: 1 initialized @(2,0)
GPGPU-Sim uArch: core:  9, cta: 1 initialized @(2,0)
GPGPU-Sim uArch: core: 10, cta: 1 initialized @(2,0)
GPGPU-Sim uArch: core: 11, cta: 1 initialized @(2,0)
GPGPU-Sim uArch: core: 12, cta: 1 initialized @(2,0)
GPGPU-Sim uArch: core: 13, cta: 1 initialized @(2,0)
GPGPU-Sim uArch: core: 14, cta: 1 initialized @(2,0)
GPGPU-Sim uArch: core:  0, cta: 1 initialized @(2,0)
GPGPU-Sim uArch: core:  1, cta: 2 initialized @(3,0)
GPGPU-Sim uArch: core:  2, cta: 2 initialized @(3,0)
GPGPU-Sim uArch: core:  3, cta: 2 initialized @(3,0)
GPGPU-Sim uArch: core:  4, cta: 2 initialized @(3,0)
GPGPU-Sim uArch: core:  5, cta: 2 initialized @(3,0)
GPGPU-Sim uArch: core:  6, cta: 2 initialized @(3,0)
GPGPU-Sim uArch: core:  7, cta: 2 initialized @(3,0)
GPGPU-Sim uArch: core:  8, cta: 2 initialized @(3,0)
GPGPU-Sim uArch: core:  9, cta: 2 initialized @(3,0)
GPGPU-Sim uArch: core: 10, cta: 2 initialized @(3,0)
GPGPU-Sim uArch: core: 11, cta: 2 initialized @(3,0)
GPGPU-Sim uArch: core: 12, cta: 2 initialized @(3,0)
GPGPU-Sim uArch: core: 13, cta: 2 initialized @(3,0)
GPGPU-Sim uArch: core: 14, cta: 2 initialized @(3,0)
GPGPU-Sim uArch: core:  0, cta: 2 initialized @(3,0)
GPGPU-Sim uArch: core:  1, cta: 3 initialized @(4,0)
GPGPU-Sim uArch: core:  2, cta: 3 initialized @(4,0)
GPGPU-Sim uArch: core:  3, cta: 3 initialized @(4,0)
GPGPU-Sim uArch: core:  4, cta: 3 initialized @(4,0)
GPGPU-Sim uArch: core:  5, cta: 3 initialized @(4,0)
GPGPU-Sim uArch: core:  6, cta: 3 initialized @(4,0)
GPGPU-Sim uArch: core:  7, cta: 3 initialized @(4,0)
GPGPU-Sim uArch: core:  8, cta: 3 initialized @(4,0)
GPGPU-Sim uArch: core:  9, cta: 3 initialized @(4,0)
GPGPU-Sim uArch: core: 10, cta: 3 initialized @(4,0)
GPGPU-Sim uArch: core: 11, cta: 3 initialized @(4,0)
GPGPU-Sim uArch: core: 12, cta: 3 initialized @(4,0)
GPGPU-Sim uArch: core: 13, cta: 3 initialized @(4,0)
GPGPU-Sim uArch: core: 14, cta: 3 initialized @(4,0)
GPGPU-Sim uArch: core:  0, cta: 3 initialized @(4,0)
GPGPU-Sim uArch: core:  1, cta: 4 initialized @(5,0)
GPGPU-Sim uArch: core:  2, cta: 4 initialized @(5,0)
GPGPU-Sim uArch: core:  3, cta: 4 initialized @(5,0)
GPGPU-Sim uArch: core:  4, cta: 4 initialized @(5,0)
GPGPU-Sim uArch: core:  5, cta: 4 initialized @(5,0)
GPGPU-Sim uArch: core:  6, cta: 4 initialized @(5,0)
GPGPU-Sim uArch: core:  7, cta: 4 initialized @(5,0)
GPGPU-Sim uArch: core:  8, cta: 4 initialized @(5,0)
GPGPU-Sim uArch: core:  9, cta: 4 initialized @(5,0)
GPGPU-Sim uArch: core: 10, cta: 4 initialized @(5,0)
GPGPU-Sim uArch: core: 11, cta: 4 initialized @(5,0)
GPGPU-Sim uArch: core: 12, cta: 4 initialized @(5,0)
GPGPU-Sim uArch: core: 13, cta: 4 initialized @(5,0)
GPGPU-Sim uArch: core: 14, cta: 4 initialized @(5,0)
GPGPU-Sim uArch: core:  0, cta: 4 initialized @(5,0)
GPGPU-Sim uArch: core:  1, cta: 5 initialized @(6,0)
GPGPU-Sim uArch: core:  2, cta: 5 initialized @(6,0)
GPGPU-Sim uArch: core:  3, cta: 5 initialized @(6,0)
GPGPU-Sim uArch: core:  4, cta: 5 initialized @(6,0)
GPGPU-Sim uArch: core:  5, cta: 5 initialized @(6,0)
GPGPU-Sim uArch: core:  6, cta: 5 initialized @(6,0)
GPGPU-Sim uArch: core:  7, cta: 5 initialized @(6,0)
GPGPU-Sim uArch: core:  8, cta: 5 initialized @(6,0)
GPGPU-Sim uArch: core:  9, cta: 5 initialized @(6,0)
GPGPU-Sim uArch: core: 10, cta: 5 initialized @(6,0)
GPGPU-Sim uArch: core: 11, cta: 5 initialized @(6,0)
GPGPU-Sim uArch: core: 12, cta: 5 initialized @(6,0)
GPGPU-Sim uArch: core: 13, cta: 5 initialized @(6,0)
GPGPU-Sim uArch: core: 14, cta: 5 initialized @(6,0)
GPGPU-Sim uArch: core:  0, cta: 5 initialized @(6,0)
GPGPU-Sim PTX: 100000 instructions simulated : ctaid=(25,0,0) tid=(159,0,0)
GPGPU-Sim uArch: cycles simulated: 500  inst.: 91808 (ipc=183.6) sim_rate=91808 (inst/sec) elapsed = 0:0:00:01 / Wed May  1 12:43:19 2019
GPGPU-Sim PTX: 200000 instructions simulated : ctaid=(68,0,0) tid=(63,0,0)
GPGPU-Sim uArch: cycles simulated: 1000  inst.: 230688 (ipc=230.7) sim_rate=115344 (inst/sec) elapsed = 0:0:00:02 / Wed May  1 12:43:20 2019
GPGPU-Sim PTX: 300000 instructions simulated : ctaid=(82,0,0) tid=(221,0,0)
GPGPU-Sim uArch: Shader 3 finished CTA #0 (1332,0), 5 CTAs running
GPGPU-Sim uArch: core:  3, cta: 0 initialized @(1333,0)
GPGPU-Sim uArch: Shader 4 finished CTA #0 (1333,0), 5 CTAs running
GPGPU-Sim uArch: core:  4, cta: 0 initialized @(1334,0)
GPGPU-Sim uArch: Shader 5 finished CTA #0 (1341,0), 5 CTAs running
GPGPU-Sim uArch: core:  5, cta: 0 initialized @(1342,0)
GPGPU-Sim uArch: Shader 1 finished CTA #3 (1342,0), 5 CTAs running
GPGPU-Sim uArch: core:  1, cta: 3 initialized @(1343,0)
GPGPU-Sim uArch: Shader 2 finished CTA #0 (1348,0), 5 CTAs running
GPGPU-Sim uArch: core:  2, cta: 0 initialized @(1349,0)
GPGPU-Sim uArch: Shader 1 finished CTA #4 (1351,0), 5 CTAs running
GPGPU-Sim uArch: Shader 1 finished CTA #1 (1351,0), 4 CTAs running
GPGPU-Sim uArch: core:  1, cta: 1 initialized @(1352,0)
GPGPU-Sim uArch: core:  1, cta: 4 initialized @(1353,0)
GPGPU-Sim uArch: Shader 3 finished CTA #2 (1354,0), 5 CTAs running
GPGPU-Sim uArch: core:  3, cta: 2 initialized @(1355,0)
GPGPU-Sim uArch: Shader 9 finished CTA #0 (1360,0), 5 CTAs running
GPGPU-Sim uArch: core:  9, cta: 0 initialized @(1361,0)
GPGPU-Sim uArch: Shader 4 finished CTA #2 (1362,0), 5 CTAs running
GPGPU-Sim uArch: Shader 4 finished CTA #3 (1362,0), 4 CTAs running
GPGPU-Sim uArch: core:  4, cta: 2 initialized @(1363,0)
GPGPU-Sim uArch: core:  4, cta: 3 initialized @(1364,0)
GPGPU-Sim uArch: Shader 6 finished CTA #1 (1366,0), 5 CTAs running
GPGPU-Sim uArch: Shader 6 finished CTA #2 (1366,0), 4 CTAs running
GPGPU-Sim uArch: core:  6, cta: 1 initialized @(1367,0)
GPGPU-Sim uArch: core:  6, cta: 2 initialized @(1368,0)
GPGPU-Sim uArch: Shader 2 finished CTA #3 (1368,0), 5 CTAs running
GPGPU-Sim uArch: core:  2, cta: 3 initialized @(1369,0)
GPGPU-Sim uArch: Shader 11 finished CTA #0 (1370,0), 5 CTAs running
GPGPU-Sim uArch: core: 11, cta: 0 initialized @(1371,0)
GPGPU-Sim uArch: Shader 12 finished CTA #0 (1371,0), 5 CTAs running
GPGPU-Sim uArch: core: 12, cta: 0 initialized @(1372,0)
GPGPU-Sim uArch: Shader 3 finished CTA #3 (1372,0), 5 CTAs running
GPGPU-Sim uArch: core:  3, cta: 3 initialized @(1373,0)
GPGPU-Sim uArch: Shader 5 finished CTA #2 (1376,0), 5 CTAs running
GPGPU-Sim uArch: Shader 5 finished CTA #3 (1376,0), 4 CTAs running
GPGPU-Sim uArch: core:  5, cta: 2 initialized @(1377,0)
GPGPU-Sim uArch: core:  5, cta: 3 initialized @(1378,0)
GPGPU-Sim uArch: Shader 2 finished CTA #1 (1378,0), 5 CTAs running
GPGPU-Sim uArch: core:  2, cta: 1 initialized @(1379,0)
GPGPU-Sim uArch: Shader 9 finished CTA #1 (1380,0), 5 CTAs running
GPGPU-Sim uArch: Shader 9 finished CTA #4 (1380,0), 4 CTAs running
GPGPU-Sim uArch: core:  9, cta: 1 initialized @(1381,0)
GPGPU-Sim uArch: Shader 10 finished CTA #0 (1381,0), 5 CTAs running
GPGPU-Sim uArch: core: 10, cta: 0 initialized @(1382,0)
GPGPU-Sim uArch: core:  9, cta: 4 initialized @(1382,0)
GPGPU-Sim uArch: Shader 14 finished CTA #0 (1382,0), 5 CTAs running
GPGPU-Sim uArch: core: 14, cta: 0 initialized @(1383,0)
GPGPU-Sim uArch: Shader 3 finished CTA #1 (1384,0), 5 CTAs running
GPGPU-Sim uArch: Shader 6 finished CTA #5 (1384,0), 5 CTAs running
GPGPU-Sim uArch: Shader 6 finished CTA #0 (1384,0), 4 CTAs running
GPGPU-Sim uArch: core:  3, cta: 1 initialized @(1385,0)
GPGPU-Sim uArch: core:  6, cta: 0 initialized @(1385,0)
GPGPU-Sim uArch: core:  6, cta: 5 initialized @(1386,0)
GPGPU-Sim uArch: Shader 2 finished CTA #4 (1386,0), 5 CTAs running
GPGPU-Sim uArch: Shader 14 finished CTA #3 (1386,0), 5 CTAs running
GPGPU-Sim uArch: core: 14, cta: 3 initialized @(1387,0)
GPGPU-Sim uArch: core:  2, cta: 4 initialized @(1387,0)
GPGPU-Sim uArch: Shader 10 finished CTA #1 (1392,0), 5 CTAs running
GPGPU-Sim uArch: Shader 11 finished CTA #1 (1392,0), 5 CTAs running
GPGPU-Sim uArch: core: 10, cta: 1 initialized @(1393,0)
GPGPU-Sim uArch: core: 11, cta: 1 initialized @(1393,0)
GPGPU-Sim uArch: Shader 8 finished CTA #1 (1395,0), 5 CTAs running
GPGPU-Sim uArch: core:  8, cta: 1 initialized @(1396,0)
GPGPU-Sim uArch: Shader 11 finished CTA #4 (1396,0), 5 CTAs running
GPGPU-Sim uArch: Shader 11 finished CTA #5 (1396,0), 4 CTAs running
GPGPU-Sim uArch: core: 11, cta: 4 initialized @(1397,0)
GPGPU-Sim uArch: core: 11, cta: 5 initialized @(1398,0)
GPGPU-Sim uArch: Shader 12 finished CTA #3 (1398,0), 5 CTAs running
GPGPU-Sim uArch: Shader 12 finished CTA #4 (1398,0), 4 CTAs running
GPGPU-Sim uArch: core: 12, cta: 3 initialized @(1399,0)
GPGPU-Sim uArch: core: 12, cta: 4 initialized @(1400,0)
GPGPU-Sim uArch: Shader 7 finished CTA #1 (1404,0), 5 CTAs running
GPGPU-Sim uArch: Shader 13 finished CTA #0 (1404,0), 5 CTAs running
GPGPU-Sim uArch: core: 13, cta: 0 initialized @(1405,0)
GPGPU-Sim uArch: core:  7, cta: 1 initialized @(1405,0)
GPGPU-Sim uArch: Shader 9 finished CTA #5 (1405,0), 5 CTAs running
GPGPU-Sim uArch: core:  9, cta: 5 initialized @(1406,0)
GPGPU-Sim uArch: Shader 8 finished CTA #2 (1408,0), 5 CTAs running
GPGPU-Sim uArch: Shader 13 finished CTA #3 (1408,0), 5 CTAs running
GPGPU-Sim uArch: core: 13, cta: 3 initialized @(1409,0)
GPGPU-Sim uArch: core:  8, cta: 2 initialized @(1409,0)
GPGPU-Sim uArch: Shader 14 finished CTA #4 (1412,0), 5 CTAs running
GPGPU-Sim uArch: core: 14, cta: 4 initialized @(1413,0)
GPGPU-Sim uArch: Shader 5 finished CTA #1 (1416,0), 5 CTAs running
GPGPU-Sim uArch: Shader 13 finished CTA #1 (1416,0), 5 CTAs running
GPGPU-Sim uArch: core:  5, cta: 1 initialized @(1417,0)
GPGPU-Sim uArch: core: 13, cta: 1 initialized @(1417,0)
GPGPU-Sim uArch: Shader 0 finished CTA #2 (1420,0), 5 CTAs running
GPGPU-Sim uArch: Shader 0 finished CTA #3 (1420,0), 4 CTAs running
GPGPU-Sim uArch: Shader 14 finished CTA #1 (1420,0), 5 CTAs running
GPGPU-Sim uArch: core: 14, cta: 1 initialized @(1421,0)
GPGPU-Sim uArch: core:  0, cta: 2 initialized @(1421,0)
GPGPU-Sim uArch: core:  0, cta: 3 initialized @(1422,0)
GPGPU-Sim uArch: Shader 13 finished CTA #4 (1424,0), 5 CTAs running
GPGPU-Sim uArch: core: 13, cta: 4 initialized @(1425,0)
GPGPU-Sim uArch: Shader 10 finished CTA #4 (1429,0), 5 CTAs running
GPGPU-Sim uArch: Shader 10 finished CTA #5 (1429,0), 4 CTAs running
GPGPU-Sim uArch: core: 10, cta: 4 initialized @(1430,0)
GPGPU-Sim uArch: core: 10, cta: 5 initialized @(1431,0)
GPGPU-Sim uArch: Shader 7 finished CTA #2 (1434,0), 5 CTAs running
GPGPU-Sim uArch: core:  7, cta: 2 initialized @(1435,0)
GPGPU-Sim uArch: Shader 7 finished CTA #5 (1438,0), 5 CTAs running
GPGPU-Sim uArch: Shader 7 finished CTA #0 (1438,0), 4 CTAs running
GPGPU-Sim uArch: Shader 8 finished CTA #5 (1438,0), 5 CTAs running
GPGPU-Sim uArch: Shader 8 finished CTA #0 (1438,0), 4 CTAs running
GPGPU-Sim uArch: Shader 12 finished CTA #1 (1438,0), 5 CTAs running
GPGPU-Sim uArch: core:  8, cta: 0 initialized @(1439,0)
GPGPU-Sim uArch: core: 12, cta: 1 initialized @(1439,0)
GPGPU-Sim uArch: core:  7, cta: 0 initialized @(1439,0)
GPGPU-Sim uArch: Shader 4 finished CTA #1 (1439,0), 5 CTAs running
GPGPU-Sim uArch: core:  8, cta: 5 initialized @(1440,0)
GPGPU-Sim uArch: core:  4, cta: 1 initialized @(1440,0)
GPGPU-Sim uArch: core:  7, cta: 5 initialized @(1440,0)
GPGPU-Sim uArch: Shader 0 finished CTA #0 (1444,0), 5 CTAs running
GPGPU-Sim uArch: Shader 0 finished CTA #1 (1444,0), 4 CTAs running
GPGPU-Sim uArch: core:  0, cta: 0 initialized @(1445,0)
GPGPU-Sim uArch: core:  0, cta: 1 initialized @(1446,0)
GPGPU-Sim uArch: Shader 7 finished CTA #3 (1454,0), 5 CTAs running
GPGPU-Sim uArch: core:  7, cta: 3 initialized @(1455,0)
GPGPU-Sim uArch: Shader 1 finished CTA #2 (1466,0), 5 CTAs running
GPGPU-Sim uArch: core:  1, cta: 2 initialized @(1467,0)
GPGPU-Sim PTX: 400000 instructions simulated : ctaid=(108,0,0) tid=(117,0,0)
GPGPU-Sim uArch: Shader 2 finished CTA #2 (1478,0), 5 CTAs running
GPGPU-Sim uArch: core:  2, cta: 2 initialized @(1479,0)
GPGPU-Sim uArch: Shader 12 finished CTA #2 (1503,0), 5 CTAs running
GPGPU-Sim uArch: core: 12, cta: 2 initialized @(1504,0)
GPGPU-Sim uArch: Shader 5 finished CTA #4 (1511,0), 5 CTAs running
GPGPU-Sim uArch: core:  5, cta: 4 initialized @(1512,0)
GPGPU-Sim uArch: Shader 10 finished CTA #2 (1525,0), 5 CTAs running
GPGPU-Sim uArch: core: 10, cta: 2 initialized @(1526,0)
GPGPU-Sim uArch: Shader 9 finished CTA #3 (1527,0), 5 CTAs running
GPGPU-Sim uArch: core:  9, cta: 3 initialized @(1528,0)
GPGPU-Sim uArch: Shader 6 finished CTA #3 (1539,0), 5 CTAs running
GPGPU-Sim uArch: Shader 11 finished CTA #2 (1539,0), 5 CTAs running
GPGPU-Sim uArch: Shader 11 finished CTA #3 (1539,0), 4 CTAs running
GPGPU-Sim uArch: core: 11, cta: 2 initialized @(1540,0)
GPGPU-Sim uArch: core:  6, cta: 3 initialized @(1540,0)
GPGPU-Sim uArch: core: 11, cta: 3 initialized @(1541,0)
GPGPU-Sim uArch: Shader 3 finished CTA #4 (1554,0), 5 CTAs running
GPGPU-Sim uArch: core:  3, cta: 4 initialized @(1555,0)
GPGPU-Sim uArch: Shader 8 finished CTA #3 (1555,0), 5 CTAs running
GPGPU-Sim uArch: core:  8, cta: 3 initialized @(1556,0)
GPGPU-Sim uArch: Shader 9 finished CTA #2 (1557,0), 5 CTAs running
GPGPU-Sim uArch: core:  9, cta: 2 initialized @(1558,0)
GPGPU-Sim uArch: Shader 4 finished CTA #4 (1560,0), 5 CTAs running
GPGPU-Sim uArch: core:  4, cta: 4 initialized @(1561,0)
GPGPU-Sim uArch: Shader 1 finished CTA #5 (1568,0), 5 CTAs running
GPGPU-Sim uArch: Shader 10 finished CTA #3 (1568,0), 5 CTAs running
GPGPU-Sim uArch: core: 10, cta: 3 initialized @(1569,0)
GPGPU-Sim uArch: core:  1, cta: 5 initialized @(1569,0)
GPGPU-Sim uArch: Shader 6 finished CTA #4 (1579,0), 5 CTAs running
GPGPU-Sim uArch: core:  6, cta: 4 initialized @(1580,0)
GPGPU-Sim uArch: Shader 0 finished CTA #4 (1584,0), 5 CTAs running
GPGPU-Sim uArch: core:  0, cta: 4 initialized @(1585,0)
GPGPU-Sim PTX: 500000 instructions simulated : ctaid=(154,0,0) tid=(245,0,0)
GPGPU-Sim uArch: Shader 14 finished CTA #2 (1590,0), 5 CTAs running
GPGPU-Sim uArch: core: 14, cta: 2 initialized @(1591,0)
GPGPU-Sim uArch: Shader 3 finished CTA #5 (1592,0), 5 CTAs running
GPGPU-Sim uArch: core:  3, cta: 5 initialized @(1593,0)
GPGPU-Sim uArch: Shader 4 finished CTA #5 (1609,0), 5 CTAs running
GPGPU-Sim uArch: core:  4, cta: 5 initialized @(1610,0)
GPGPU-Sim uArch: Shader 13 finished CTA #5 (1610,0), 5 CTAs running
GPGPU-Sim uArch: core: 13, cta: 5 initialized @(1611,0)
GPGPU-Sim uArch: Shader 7 finished CTA #4 (1615,0), 5 CTAs running
GPGPU-Sim uArch: core:  7, cta: 4 initialized @(1616,0)
GPGPU-Sim uArch: Shader 2 finished CTA #5 (1617,0), 5 CTAs running
GPGPU-Sim uArch: core:  2, cta: 5 initialized @(1618,0)
GPGPU-Sim uArch: Shader 13 finished CTA #2 (1618,0), 5 CTAs running
GPGPU-Sim uArch: core: 13, cta: 2 initialized @(1619,0)
GPGPU-Sim uArch: Shader 5 finished CTA #5 (1624,0), 5 CTAs running
GPGPU-Sim uArch: core:  5, cta: 5 initialized @(1625,0)
GPGPU-Sim uArch: Shader 0 finished CTA #5 (1630,0), 5 CTAs running
GPGPU-Sim uArch: core:  0, cta: 5 initialized @(1631,0)
GPGPU-Sim uArch: Shader 8 finished CTA #4 (1636,0), 5 CTAs running
GPGPU-Sim uArch: Shader 14 finished CTA #5 (1636,0), 5 CTAs running
GPGPU-Sim uArch: core:  8, cta: 4 initialized @(1637,0)
GPGPU-Sim uArch: core: 14, cta: 5 initialized @(1637,0)
GPGPU-Sim uArch: Shader 12 finished CTA #5 (1639,0), 5 CTAs running
GPGPU-Sim uArch: core: 12, cta: 5 initialized @(1640,0)
GPGPU-Sim PTX: 600000 instructions simulated : ctaid=(156,0,0) tid=(205,0,0)
GPGPU-Sim uArch: Shader 4 finished CTA #0 (1764,0), 5 CTAs running
GPGPU-Sim uArch: core:  4, cta: 0 initialized @(1765,0)
GPGPU-Sim uArch: Shader 1 finished CTA #3 (1777,0), 5 CTAs running
GPGPU-Sim uArch: core:  1, cta: 3 initialized @(1778,0)
GPGPU-Sim uArch: Shader 3 finished CTA #0 (1780,0), 5 CTAs running
GPGPU-Sim uArch: core:  3, cta: 0 initialized @(1781,0)
GPGPU-Sim uArch: Shader 5 finished CTA #0 (1801,0), 5 CTAs running
GPGPU-Sim uArch: core:  5, cta: 0 initialized @(1802,0)
GPGPU-Sim uArch: Shader 2 finished CTA #0 (1818,0), 5 CTAs running
GPGPU-Sim uArch: core:  2, cta: 0 initialized @(1819,0)
GPGPU-Sim uArch: Shader 1 finished CTA #4 (1835,0), 5 CTAs running
GPGPU-Sim uArch: Shader 1 finished CTA #1 (1835,0), 4 CTAs running
GPGPU-Sim uArch: core:  1, cta: 1 initialized @(1836,0)
GPGPU-Sim uArch: core:  1, cta: 4 initialized @(1837,0)
GPGPU-Sim uArch: Shader 6 finished CTA #1 (1845,0), 5 CTAs running
GPGPU-Sim uArch: core:  6, cta: 1 initialized @(1846,0)
GPGPU-Sim uArch: Shader 11 finished CTA #0 (1846,0), 5 CTAs running
GPGPU-Sim uArch: core: 11, cta: 0 initialized @(1847,0)
GPGPU-Sim uArch: Shader 12 finished CTA #0 (1849,0), 5 CTAs running
GPGPU-Sim uArch: core: 12, cta: 0 initialized @(1850,0)
GPGPU-Sim uArch: Shader 3 finished CTA #2 (1872,0), 5 CTAs running
GPGPU-Sim uArch: core:  3, cta: 2 initialized @(1873,0)
GPGPU-Sim uArch: Shader 9 finished CTA #0 (1874,0), 5 CTAs running
GPGPU-Sim uArch: core:  9, cta: 0 initialized @(1875,0)
GPGPU-Sim uArch: Shader 8 finished CTA #1 (1879,0), 5 CTAs running
GPGPU-Sim uArch: core:  8, cta: 1 initialized @(1880,0)
GPGPU-Sim uArch: Shader 14 finished CTA #3 (1886,0), 5 CTAs running
GPGPU-Sim uArch: core: 14, cta: 3 initialized @(1887,0)
GPGPU-Sim uArch: Shader 11 finished CTA #1 (1890,0), 5 CTAs running
GPGPU-Sim uArch: core: 11, cta: 1 initialized @(1891,0)
GPGPU-Sim uArch: Shader 5 finished CTA #2 (1895,0), 5 CTAs running
GPGPU-Sim uArch: core:  5, cta: 2 initialized @(1896,0)
GPGPU-Sim uArch: Shader 3 finished CTA #3 (1905,0), 5 CTAs running
GPGPU-Sim uArch: core:  3, cta: 3 initialized @(1906,0)
GPGPU-Sim uArch: Shader 4 finished CTA #2 (1906,0), 5 CTAs running
GPGPU-Sim uArch: core:  4, cta: 2 initialized @(1907,0)
GPGPU-Sim uArch: Shader 2 finished CTA #1 (1917,0), 5 CTAs running
GPGPU-Sim uArch: core:  2, cta: 1 initialized @(1918,0)
GPGPU-Sim uArch: Shader 5 finished CTA #3 (1943,0), 5 CTAs running
GPGPU-Sim uArch: core:  5, cta: 3 initialized @(1944,0)
GPGPU-Sim uArch: Shader 9 finished CTA #1 (1944,0), 5 CTAs running
GPGPU-Sim uArch: core:  9, cta: 1 initialized @(1945,0)
GPGPU-Sim uArch: Shader 10 finished CTA #1 (1945,0), 5 CTAs running
GPGPU-Sim uArch: core: 10, cta: 1 initialized @(1946,0)
GPGPU-Sim uArch: Shader 6 finished CTA #2 (1947,0), 5 CTAs running
GPGPU-Sim uArch: core:  6, cta: 2 initialized @(1948,0)
GPGPU-Sim uArch: Shader 10 finished CTA #0 (1954,0), 5 CTAs running
GPGPU-Sim uArch: core: 10, cta: 0 initialized @(1955,0)
GPGPU-Sim uArch: Shader 6 finished CTA #5 (1957,0), 5 CTAs running
GPGPU-Sim uArch: core:  6, cta: 5 initialized @(1958,0)
GPGPU-Sim uArch: Shader 2 finished CTA #4 (1961,0), 5 CTAs running
GPGPU-Sim uArch: core:  2, cta: 4 initialized @(1962,0)
GPGPU-Sim uArch: Shader 14 finished CTA #0 (1963,0), 5 CTAs running
GPGPU-Sim uArch: core: 14, cta: 0 initialized @(1964,0)
GPGPU-Sim PTX: 700000 instructions simulated : ctaid=(115,0,0) tid=(237,0,0)
GPGPU-Sim uArch: Shader 2 finished CTA #3 (1969,0), 5 CTAs running
GPGPU-Sim uArch: core:  2, cta: 3 initialized @(1970,0)
GPGPU-Sim uArch: Shader 4 finished CTA #3 (1976,0), 5 CTAs running
GPGPU-Sim uArch: core:  4, cta: 3 initialized @(1977,0)
GPGPU-Sim uArch: Shader 13 finished CTA #0 (1980,0), 5 CTAs running
GPGPU-Sim uArch: core: 13, cta: 0 initialized @(1981,0)
GPGPU-Sim uArch: Shader 12 finished CTA #4 (1993,0), 5 CTAs running
GPGPU-Sim uArch: core: 12, cta: 4 initialized @(1994,0)
GPGPU-Sim uArch: cycles simulated: 2000  inst.: 645936 (ipc=323.0) sim_rate=215312 (inst/sec) elapsed = 0:0:00:03 / Wed May  1 12:43:21 2019
GPGPU-Sim uArch: Shader 12 finished CTA #3 (2002,0), 5 CTAs running
GPGPU-Sim uArch: core: 12, cta: 3 initialized @(2003,0)
GPGPU-Sim uArch: Shader 11 finished CTA #5 (2005,0), 5 CTAs running
GPGPU-Sim uArch: core: 11, cta: 5 initialized @(2006,0)
GPGPU-Sim uArch: Shader 11 finished CTA #4 (2016,0), 5 CTAs running
GPGPU-Sim uArch: core: 11, cta: 4 initialized @(2017,0)
GPGPU-Sim uArch: Shader 6 finished CTA #0 (2017,0), 5 CTAs running
GPGPU-Sim uArch: core:  6, cta: 0 initialized @(2018,0)
GPGPU-Sim uArch: Shader 3 finished CTA #1 (2020,0), 5 CTAs running
GPGPU-Sim uArch: core:  3, cta: 1 initialized @(2021,0)
GPGPU-Sim uArch: Shader 7 finished CTA #2 (2026,0), 5 CTAs running
GPGPU-Sim uArch: core:  7, cta: 2 initialized @(2027,0)
GPGPU-Sim uArch: Shader 9 finished CTA #4 (2028,0), 5 CTAs running
GPGPU-Sim uArch: core:  9, cta: 4 initialized @(2029,0)
GPGPU-Sim uArch: Shader 13 finished CTA #3 (2033,0), 5 CTAs running
GPGPU-Sim uArch: core: 13, cta: 3 initialized @(2034,0)
GPGPU-Sim uArch: Shader 7 finished CTA #1 (2039,0), 5 CTAs running
GPGPU-Sim uArch: core:  7, cta: 1 initialized @(2040,0)
GPGPU-Sim uArch: Shader 14 finished CTA #4 (2040,0), 5 CTAs running
GPGPU-Sim uArch: core: 14, cta: 4 initialized @(2041,0)
GPGPU-Sim uArch: Shader 5 finished CTA #1 (2055,0), 5 CTAs running
GPGPU-Sim uArch: core:  5, cta: 1 initialized @(2056,0)
GPGPU-Sim uArch: Shader 8 finished CTA #2 (2056,0), 5 CTAs running
GPGPU-Sim uArch: core:  8, cta: 2 initialized @(2057,0)
GPGPU-Sim uArch: Shader 8 finished CTA #0 (2069,0), 5 CTAs running
GPGPU-Sim uArch: core:  8, cta: 0 initialized @(2070,0)
GPGPU-Sim uArch: Shader 1 finished CTA #5 (2078,0), 5 CTAs running
GPGPU-Sim uArch: core:  1, cta: 5 initialized @(2079,0)
GPGPU-Sim uArch: Shader 4 finished CTA #1 (2081,0), 5 CTAs running
GPGPU-Sim uArch: core:  4, cta: 1 initialized @(2082,0)
GPGPU-Sim uArch: Shader 7 finished CTA #0 (2104,0), 5 CTAs running
GPGPU-Sim uArch: core:  7, cta: 0 initialized @(2105,0)
GPGPU-Sim uArch: Shader 13 finished CTA #1 (2105,0), 5 CTAs running
GPGPU-Sim uArch: core: 13, cta: 1 initialized @(2106,0)
GPGPU-Sim uArch: Shader 5 finished CTA #4 (2107,0), 5 CTAs running
GPGPU-Sim uArch: core:  5, cta: 4 initialized @(2108,0)
GPGPU-Sim uArch: Shader 9 finished CTA #5 (2114,0), 5 CTAs running
GPGPU-Sim uArch: Shader 12 finished CTA #1 (2114,0), 5 CTAs running
GPGPU-Sim uArch: core:  9, cta: 5 initialized @(2115,0)
GPGPU-Sim uArch: core: 12, cta: 1 initialized @(2115,0)
GPGPU-Sim uArch: Shader 8 finished CTA #5 (2121,0), 5 CTAs running
GPGPU-Sim uArch: core:  8, cta: 5 initialized @(2122,0)
GPGPU-Sim uArch: Shader 9 finished CTA #3 (2125,0), 5 CTAs running
GPGPU-Sim uArch: core:  9, cta: 3 initialized @(2126,0)
GPGPU-Sim uArch: Shader 3 finished CTA #5 (2127,0), 5 CTAs running
GPGPU-Sim uArch: Shader 10 finished CTA #2 (2127,0), 5 CTAs running
GPGPU-Sim uArch: core: 10, cta: 2 initialized @(2128,0)
GPGPU-Sim uArch: core:  3, cta: 5 initialized @(2128,0)
GPGPU-Sim PTX: 800000 instructions simulated : ctaid=(221,0,0) tid=(43,0,0)
GPGPU-Sim uArch: Shader 14 finished CTA #2 (2137,0), 5 CTAs running
GPGPU-Sim uArch: core: 14, cta: 2 initialized @(2138,0)
GPGPU-Sim uArch: Shader 6 finished CTA #4 (2158,0), 5 CTAs running
GPGPU-Sim uArch: core:  6, cta: 4 initialized @(2159,0)
GPGPU-Sim uArch: Shader 11 finished CTA #2 (2163,0), 5 CTAs running
GPGPU-Sim uArch: core: 11, cta: 2 initialized @(2164,0)
GPGPU-Sim uArch: Shader 12 finished CTA #2 (2164,0), 5 CTAs running
GPGPU-Sim uArch: core: 12, cta: 2 initialized @(2165,0)
GPGPU-Sim uArch: Shader 6 finished CTA #3 (2170,0), 5 CTAs running
GPGPU-Sim uArch: core:  6, cta: 3 initialized @(2171,0)
GPGPU-Sim uArch: Shader 0 finished CTA #4 (2182,0), 5 CTAs running
GPGPU-Sim uArch: core:  0, cta: 4 initialized @(2183,0)
GPGPU-Sim uArch: Shader 4 finished CTA #5 (2185,0), 5 CTAs running
GPGPU-Sim uArch: core:  4, cta: 5 initialized @(2186,0)
GPGPU-Sim uArch: Shader 4 finished CTA #0 (2194,0), 5 CTAs running
GPGPU-Sim uArch: core:  4, cta: 0 initialized @(2195,0)
GPGPU-Sim uArch: Shader 1 finished CTA #3 (2199,0), 5 CTAs running
GPGPU-Sim uArch: core:  1, cta: 3 initialized @(2200,0)
GPGPU-Sim uArch: Shader 8 finished CTA #4 (2206,0), 5 CTAs running
GPGPU-Sim uArch: core:  8, cta: 4 initialized @(2207,0)
GPGPU-Sim uArch: Shader 13 finished CTA #4 (2212,0), 5 CTAs running
GPGPU-Sim uArch: Shader 14 finished CTA #5 (2212,0), 5 CTAs running
GPGPU-Sim uArch: core: 13, cta: 4 initialized @(2213,0)
GPGPU-Sim uArch: core: 14, cta: 5 initialized @(2213,0)
GPGPU-Sim uArch: Shader 3 finished CTA #0 (2217,0), 5 CTAs running
GPGPU-Sim uArch: core:  3, cta: 0 initialized @(2218,0)
GPGPU-Sim uArch: Shader 0 finished CTA #2 (2231,0), 5 CTAs running
GPGPU-Sim uArch: Shader 0 finished CTA #3 (2231,0), 4 CTAs running
GPGPU-Sim uArch: core:  0, cta: 2 initialized @(2232,0)
GPGPU-Sim uArch: core:  0, cta: 3 initialized @(2233,0)
GPGPU-Sim uArch: Shader 1 finished CTA #2 (2235,0), 5 CTAs running
GPGPU-Sim uArch: core:  1, cta: 2 initialized @(2236,0)
GPGPU-Sim uArch: Shader 10 finished CTA #5 (2244,0), 5 CTAs running
GPGPU-Sim uArch: core: 10, cta: 5 initialized @(2245,0)
GPGPU-Sim uArch: Shader 12 finished CTA #5 (2254,0), 5 CTAs running
GPGPU-Sim uArch: Shader 12 finished CTA #0 (2254,0), 4 CTAs running
GPGPU-Sim uArch: core: 12, cta: 0 initialized @(2255,0)
GPGPU-Sim uArch: core: 12, cta: 5 initialized @(2256,0)
GPGPU-Sim uArch: Shader 3 finished CTA #2 (2265,0), 5 CTAs running
GPGPU-Sim uArch: core:  3, cta: 2 initialized @(2266,0)
GPGPU-Sim uArch: Shader 9 finished CTA #0 (2266,0), 5 CTAs running
GPGPU-Sim uArch: core:  9, cta: 0 initialized @(2267,0)
GPGPU-Sim uArch: Shader 7 finished CTA #5 (2276,0), 5 CTAs running
GPGPU-Sim uArch: core:  7, cta: 5 initialized @(2277,0)
GPGPU-Sim uArch: Shader 14 finished CTA #1 (2288,0), 5 CTAs running
GPGPU-Sim uArch: Shader 14 finished CTA #3 (2288,0), 4 CTAs running
GPGPU-Sim PTX: 900000 instructions simulated : ctaid=(255,0,0) tid=(11,0,0)
GPGPU-Sim uArch: Shader 11 finished CTA #1 (2297,0), 5 CTAs running
GPGPU-Sim uArch: Shader 10 finished CTA #4 (2299,0), 5 CTAs running
GPGPU-Sim uArch: Shader 8 finished CTA #1 (2304,0), 5 CTAs running
GPGPU-Sim uArch: Shader 9 finished CTA #2 (2305,0), 5 CTAs running
GPGPU-Sim uArch: Shader 7 finished CTA #3 (2328,0), 5 CTAs running
GPGPU-Sim uArch: Shader 4 finished CTA #4 (2329,0), 5 CTAs running
GPGPU-Sim uArch: Shader 0 finished CTA #0 (2337,0), 5 CTAs running
GPGPU-Sim uArch: Shader 3 finished CTA #4 (2338,0), 5 CTAs running
GPGPU-Sim uArch: Shader 10 finished CTA #1 (2342,0), 4 CTAs running
GPGPU-Sim uArch: Shader 14 finished CTA #0 (2343,0), 3 CTAs running
GPGPU-Sim uArch: Shader 11 finished CTA #3 (2346,0), 4 CTAs running
GPGPU-Sim uArch: Shader 2 finished CTA #5 (2348,0), 5 CTAs running
GPGPU-Sim uArch: Shader 2 finished CTA #2 (2355,0), 4 CTAs running
GPGPU-Sim uArch: Shader 0 finished CTA #1 (2357,0), 4 CTAs running
GPGPU-Sim uArch: Shader 6 finished CTA #2 (2363,0), 5 CTAs running
GPGPU-Sim uArch: Shader 10 finished CTA #0 (2366,0), 3 CTAs running
GPGPU-Sim uArch: Shader 13 finished CTA #2 (2374,0), 5 CTAs running
GPGPU-Sim uArch: Shader 7 finished CTA #4 (2385,0), 4 CTAs running
GPGPU-Sim uArch: Shader 10 finished CTA #3 (2389,0), 2 CTAs running
GPGPU-Sim uArch: Shader 6 finished CTA #5 (2393,0), 4 CTAs running
GPGPU-Sim uArch: Shader 3 finished CTA #1 (2400,0), 4 CTAs running
GPGPU-Sim uArch: Shader 2 finished CTA #4 (2401,0), 3 CTAs running
GPGPU-Sim uArch: Shader 11 finished CTA #4 (2417,0), 3 CTAs running
GPGPU-Sim uArch: Shader 13 finished CTA #5 (2425,0), 4 CTAs running
GPGPU-Sim uArch: Shader 7 finished CTA #2 (2433,0), 3 CTAs running
GPGPU-Sim uArch: Shader 13 finished CTA #3 (2433,0), 3 CTAs running
GPGPU-Sim uArch: Shader 9 finished CTA #4 (2435,0), 4 CTAs running
GPGPU-Sim uArch: Shader 8 finished CTA #3 (2436,0), 4 CTAs running
GPGPU-Sim uArch: Shader 2 finished CTA #0 (2440,0), 2 CTAs running
GPGPU-Sim uArch: Shader 5 finished CTA #5 (2453,0), 5 CTAs running
GPGPU-Sim uArch: Shader 4 finished CTA #1 (2460,0), 4 CTAs running
GPGPU-Sim uArch: Shader 6 finished CTA #0 (2460,0), 3 CTAs running
GPGPU-Sim uArch: Shader 0 finished CTA #5 (2461,0), 3 CTAs running
GPGPU-Sim uArch: Shader 1 finished CTA #1 (2494,0), 5 CTAs running
GPGPU-Sim uArch: Shader 5 finished CTA #0 (2494,0), 4 CTAs running
GPGPU-Sim uArch: Shader 1 finished CTA #4 (2501,0), 4 CTAs running
GPGPU-Sim uArch: Shader 5 finished CTA #4 (2501,0), 3 CTAs running
GPGPU-Sim uArch: Shader 9 finished CTA #5 (2508,0), 3 CTAs running
GPGPU-Sim uArch: Shader 13 finished CTA #1 (2509,0), 2 CTAs running
GPGPU-Sim uArch: Shader 12 finished CTA #1 (2520,0), 5 CTAs running
GPGPU-Sim uArch: Shader 7 finished CTA #0 (2524,0), 2 CTAs running
GPGPU-Sim uArch: Shader 6 finished CTA #1 (2526,0), 2 CTAs running
GPGPU-Sim uArch: Shader 3 finished CTA #3 (2530,0), 3 CTAs running
GPGPU-Sim uArch: Shader 11 finished CTA #0 (2534,0), 2 CTAs running
GPGPU-Sim uArch: Shader 2 finished CTA #1 (2536,0), 1 CTAs running
GPGPU-Sim uArch: Shader 11 finished CTA #2 (2543,0), 1 CTAs running
GPGPU-Sim uArch: Shader 5 finished CTA #2 (2567,0), 2 CTAs running
GPGPU-Sim uArch: Shader 4 finished CTA #5 (2572,0), 3 CTAs running
GPGPU-Sim uArch: Shader 6 finished CTA #3 (2575,0), 1 CTAs running
GPGPU-Sim uArch: Shader 4 finished CTA #2 (2585,0), 2 CTAs running
GPGPU-Sim uArch: Shader 9 finished CTA #1 (2588,0), 2 CTAs running
GPGPU-Sim uArch: Shader 4 finished CTA #3 (2596,0), 1 CTAs running
GPGPU-Sim uArch: Shader 0 finished CTA #4 (2599,0), 2 CTAs running
GPGPU-Sim uArch: Shader 5 finished CTA #3 (2599,0), 1 CTAs running
GPGPU-Sim uArch: Shader 2 finished CTA #3 (2601,0), 0 CTAs running
GPGPU-Sim uArch: Shader 2 empty (release kernel 1 '_Z6KernelP4NodePiPbS2_S1_S2_i').
GPGPU-Sim uArch: Shader 4 finished CTA #0 (2607,0), 0 CTAs running
GPGPU-Sim uArch: Shader 4 empty (release kernel 1 '_Z6KernelP4NodePiPbS2_S1_S2_i').
GPGPU-Sim uArch: Shader 12 finished CTA #2 (2610,0), 4 CTAs running
GPGPU-Sim uArch: Shader 12 finished CTA #4 (2617,0), 3 CTAs running
GPGPU-Sim uArch: Shader 10 finished CTA #5 (2634,0), 1 CTAs running
GPGPU-Sim uArch: Shader 12 finished CTA #3 (2636,0), 2 CTAs running
GPGPU-Sim uArch: Shader 7 finished CTA #1 (2637,0), 1 CTAs running
GPGPU-Sim uArch: Shader 1 finished CTA #2 (2642,0), 3 CTAs running
GPGPU-Sim uArch: Shader 8 finished CTA #2 (2645,0), 3 CTAs running
GPGPU-Sim uArch: Shader 13 finished CTA #0 (2655,0), 1 CTAs running
GPGPU-Sim uArch: Shader 3 finished CTA #2 (2668,0), 2 CTAs running
GPGPU-Sim uArch: Shader 11 finished CTA #5 (2679,0), 0 CTAs running
GPGPU-Sim uArch: Shader 11 empty (release kernel 1 '_Z6KernelP4NodePiPbS2_S1_S2_i').
GPGPU-Sim uArch: Shader 12 finished CTA #0 (2683,0), 1 CTAs running
GPGPU-Sim uArch: Shader 0 finished CTA #3 (2687,0), 1 CTAs running
GPGPU-Sim uArch: Shader 12 finished CTA #5 (2689,0), 0 CTAs running
GPGPU-Sim uArch: Shader 12 empty (release kernel 1 '_Z6KernelP4NodePiPbS2_S1_S2_i').
GPGPU-Sim uArch: Shader 5 finished CTA #1 (2691,0), 0 CTAs running
GPGPU-Sim uArch: Shader 5 empty (release kernel 1 '_Z6KernelP4NodePiPbS2_S1_S2_i').
GPGPU-Sim uArch: Shader 14 finished CTA #4 (2699,0), 2 CTAs running
GPGPU-Sim uArch: Shader 3 finished CTA #5 (2718,0), 1 CTAs running
GPGPU-Sim uArch: Shader 1 finished CTA #5 (2719,0), 2 CTAs running
GPGPU-Sim uArch: Shader 14 finished CTA #2 (2726,0), 1 CTAs running
GPGPU-Sim uArch: Shader 10 finished CTA #2 (2727,0), 0 CTAs running
GPGPU-Sim uArch: Shader 10 empty (release kernel 1 '_Z6KernelP4NodePiPbS2_S1_S2_i').
GPGPU-Sim uArch: Shader 1 finished CTA #3 (2728,0), 1 CTAs running
GPGPU-Sim uArch: Shader 9 finished CTA #3 (2730,0), 1 CTAs running
GPGPU-Sim uArch: Shader 8 finished CTA #0 (2747,0), 2 CTAs running
GPGPU-Sim uArch: Shader 6 finished CTA #4 (2752,0), 0 CTAs running
GPGPU-Sim uArch: Shader 6 empty (release kernel 1 '_Z6KernelP4NodePiPbS2_S1_S2_i').
GPGPU-Sim uArch: Shader 14 finished CTA #5 (2754,0), 0 CTAs running
GPGPU-Sim uArch: Shader 14 empty (release kernel 1 '_Z6KernelP4NodePiPbS2_S1_S2_i').
GPGPU-Sim uArch: Shader 8 finished CTA #5 (2756,0), 1 CTAs running
GPGPU-Sim uArch: Shader 13 finished CTA #4 (2764,0), 0 CTAs running
GPGPU-Sim uArch: Shader 13 empty (release kernel 1 '_Z6KernelP4NodePiPbS2_S1_S2_i').
GPGPU-Sim uArch: Shader 8 finished CTA #4 (2769,0), 0 CTAs running
GPGPU-Sim uArch: Shader 8 empty (release kernel 1 '_Z6KernelP4NodePiPbS2_S1_S2_i').
GPGPU-Sim uArch: Shader 3 finished CTA #0 (2780,0), 0 CTAs running
GPGPU-Sim uArch: Shader 3 empty (release kernel 1 '_Z6KernelP4NodePiPbS2_S1_S2_i').
GPGPU-Sim uArch: Shader 9 finished CTA #0 (2783,0), 0 CTAs running
GPGPU-Sim uArch: Shader 9 empty (release kernel 1 '_Z6KernelP4NodePiPbS2_S1_S2_i').
GPGPU-Sim uArch: Shader 0 finished CTA #2 (2788,0), 0 CTAs running
GPGPU-Sim uArch: Shader 0 empty (release kernel 1 '_Z6KernelP4NodePiPbS2_S1_S2_i').
GPGPU-Sim uArch: Shader 7 finished CTA #5 (2803,0), 0 CTAs running
GPGPU-Sim uArch: Shader 7 empty (release kernel 1 '_Z6KernelP4NodePiPbS2_S1_S2_i').
GPGPU-Sim uArch: cycles simulated: 3000  inst.: 917504 (ipc=305.8) sim_rate=229376 (inst/sec) elapsed = 0:0:00:04 / Wed May  1 12:43:22 2019
GPGPU-Sim uArch: Shader 1 finished CTA #0 (6159,0), 0 CTAs running
GPGPU-Sim uArch: Shader 1 empty (release kernel 1 '_Z6KernelP4NodePiPbS2_S1_S2_i').
GPGPU-Sim uArch: GPU detected kernel '_Z6KernelP4NodePiPbS2_S1_S2_i' finished on shader 1.
kernel_name = _Z6KernelP4NodePiPbS2_S1_S2_i 
kernel_launch_uid = 1 
gpu_sim_cycle = 6160
gpu_sim_insn = 917736
gpu_ipc =     148.9831
gpu_tot_sim_cycle = 6160
gpu_tot_sim_insn = 917736
gpu_tot_ipc =     148.9831
gpu_tot_issued_cta = 0
gpu_stall_dramfull = 334
gpu_stall_icnt2sh    = 148
gpu_total_sim_rate=229434

========= Core cache stats =========
L1I_cache:
	L1I_total_cache_accesses = 19488
	L1I_total_cache_misses = 929
	L1I_total_cache_miss_rate = 0.0477
	L1I_total_cache_pending_hits = 0
	L1I_total_cache_reservation_fails = 4394
L1D_cache:
	L1D_cache_core[0]: Access = 120, Miss = 30, Miss_rate = 0.250, Pending_hits = 90, Reservation_fails = 0
	L1D_cache_core[1]: Access = 204, Miss = 69, Miss_rate = 0.338, Pending_hits = 102, Reservation_fails = 0
	L1D_cache_core[2]: Access = 128, Miss = 32, Miss_rate = 0.250, Pending_hits = 96, Reservation_fails = 0
	L1D_cache_core[3]: Access = 152, Miss = 38, Miss_rate = 0.250, Pending_hits = 114, Reservation_fails = 0
	L1D_cache_core[4]: Access = 144, Miss = 36, Miss_rate = 0.250, Pending_hits = 108, Reservation_fails = 0
	L1D_cache_core[5]: Access = 136, Miss = 34, Miss_rate = 0.250, Pending_hits = 102, Reservation_fails = 0
	L1D_cache_core[6]: Access = 144, Miss = 36, Miss_rate = 0.250, Pending_hits = 108, Reservation_fails = 0
	L1D_cache_core[7]: Access = 128, Miss = 32, Miss_rate = 0.250, Pending_hits = 96, Reservation_fails = 0
	L1D_cache_core[8]: Access = 136, Miss = 34, Miss_rate = 0.250, Pending_hits = 102, Reservation_fails = 0
	L1D_cache_core[9]: Access = 144, Miss = 36, Miss_rate = 0.250, Pending_hits = 108, Reservation_fails = 0
	L1D_cache_core[10]: Access = 128, Miss = 32, Miss_rate = 0.250, Pending_hits = 96, Reservation_fails = 0
	L1D_cache_core[11]: Access = 136, Miss = 34, Miss_rate = 0.250, Pending_hits = 102, Reservation_fails = 0
	L1D_cache_core[12]: Access = 152, Miss = 38, Miss_rate = 0.250, Pending_hits = 114, Reservation_fails = 0
	L1D_cache_core[13]: Access = 128, Miss = 32, Miss_rate = 0.250, Pending_hits = 96, Reservation_fails = 0
	L1D_cache_core[14]: Access = 136, Miss = 34, Miss_rate = 0.250, Pending_hits = 102, Reservation_fails = 0
	L1D_total_cache_accesses = 2116
	L1D_total_cache_misses = 547
	L1D_total_cache_miss_rate = 0.2585
	L1D_total_cache_pending_hits = 1536
	L1D_total_cache_reservation_fails = 0
	L1D_cache_data_port_util = 0.001
	L1D_cache_fill_port_util = 0.012
L1C_cache:
	L1C_total_cache_accesses = 4115
	L1C_total_cache_misses = 480
	L1C_total_cache_miss_rate = 0.1166
	L1C_total_cache_pending_hits = 0
	L1C_total_cache_reservation_fails = 3652
L1T_cache:
	L1T_total_cache_accesses = 0
	L1T_total_cache_misses = 0
	L1T_total_cache_pending_hits = 0
	L1T_total_cache_reservation_fails = 0

Total_core_cache_stats:
	Total_core_cache_stats_breakdown[GLOBAL_ACC_R][HIT] = 31
	Total_core_cache_stats_breakdown[GLOBAL_ACC_R][HIT_RESERVED] = 1536
	Total_core_cache_stats_breakdown[GLOBAL_ACC_R][MISS] = 523
	Total_core_cache_stats_breakdown[CONST_ACC_R][HIT] = 3635
	Total_core_cache_stats_breakdown[CONST_ACC_R][MISS] = 480
	Total_core_cache_stats_breakdown[CONST_ACC_R][RESERVATION_FAIL] = 3652
	Total_core_cache_stats_breakdown[GLOBAL_ACC_W][HIT] = 2
	Total_core_cache_stats_breakdown[GLOBAL_ACC_W][MISS] = 24
	Total_core_cache_stats_breakdown[INST_ACC_R][HIT] = 18559
	Total_core_cache_stats_breakdown[INST_ACC_R][MISS] = 929
	Total_core_cache_stats_breakdown[INST_ACC_R][RESERVATION_FAIL] = 4394
Shader 0 warp_id issue ditsribution:
warp_id:
0, 1, 2, 3, 4, 5, 6, 7, 8, 9, 10, 11, 12, 13, 14, 15, 16, 17, 18, 19, 20, 21, 22, 23, 24, 25, 26, 27, 28, 29, 30, 31, 32, 33, 34, 35, 36, 37, 38, 39, 40, 41, 42, 43, 44, 45, 46, 47, 
distro:
30, 30, 30, 30, 30, 30, 30, 30, 30, 30, 30, 30, 30, 30, 30, 30, 45, 45, 45, 45, 45, 45, 45, 45, 45, 45, 45, 45, 45, 45, 45, 45, 45, 45, 45, 45, 45, 45, 45, 45, 30, 30, 30, 30, 30, 30, 30, 30, 
gpgpu_n_tot_thrd_icount = 990816
gpgpu_n_tot_w_icount = 30963
gpgpu_n_stall_shd_mem = 3652
gpgpu_n_mem_read_local = 0
gpgpu_n_mem_write_local = 0
gpgpu_n_mem_read_global = 523
gpgpu_n_mem_write_global = 26
gpgpu_n_mem_texture = 0
gpgpu_n_mem_const = 15
gpgpu_n_load_insn  = 65578
gpgpu_n_store_insn = 26
gpgpu_n_shmem_insn = 0
gpgpu_n_tex_insn = 0
gpgpu_n_const_mem_insn = 0
gpgpu_n_param_mem_insn = 131091
gpgpu_n_shmem_bkconflict = 0
gpgpu_n_cache_bkconflict = 0
gpgpu_n_intrawarp_mshr_merge = 0
gpgpu_n_cmem_portconflict = 3652
gpgpu_stall_shd_mem[c_mem][bk_conf] = 3652
gpgpu_stall_shd_mem[c_mem][mshr_rc] = 0
gpgpu_stall_shd_mem[c_mem][icnt_rc] = 0
gpgpu_stall_shd_mem[c_mem][data_port_stall] = 0
gpgpu_stall_shd_mem[t_mem][mshr_rc] = 0
gpgpu_stall_shd_mem[t_mem][icnt_rc] = 0
gpgpu_stall_shd_mem[t_mem][data_port_stall] = 0
gpgpu_stall_shd_mem[s_mem][bk_conf] = 0
gpgpu_stall_shd_mem[gl_mem][bk_conf] = 0
gpgpu_stall_shd_mem[gl_mem][coal_stall] = 0
gpgpu_stall_shd_mem[gl_mem][data_port_stall] = 0
gpgpu_stall_shd_mem[g_mem_ld][mshr_rc] = 0
gpgpu_stall_shd_mem[g_mem_ld][icnt_rc] = 0
gpgpu_stall_shd_mem[g_mem_ld][wb_icnt_rc] = 0
gpgpu_stall_shd_mem[g_mem_ld][wb_rsrv_fail] = 0
gpgpu_stall_shd_mem[g_mem_st][mshr_rc] = 0
gpgpu_stall_shd_mem[g_mem_st][icnt_rc] = 0
gpgpu_stall_shd_mem[g_mem_st][wb_icnt_rc] = 0
gpgpu_stall_shd_mem[g_mem_st][wb_rsrv_fail] = 0
gpgpu_stall_shd_mem[l_mem_ld][mshr_rc] = 0
gpgpu_stall_shd_mem[l_mem_ld][icnt_rc] = 0
gpgpu_stall_shd_mem[l_mem_ld][wb_icnt_rc] = 0
gpgpu_stall_shd_mem[l_mem_ld][wb_rsrv_fail] = 0
gpgpu_stall_shd_mem[l_mem_st][mshr_rc] = 0
gpgpu_stall_shd_mem[l_mem_st][icnt_rc] = 0
gpgpu_stall_shd_mem[l_mem_ld][wb_icnt_rc] = 0
gpgpu_stall_shd_mem[l_mem_ld][wb_rsrv_fail] = 0
gpu_reg_bank_conflict_stalls = 0
Warp Occupancy Distribution:
Stall:8019	W0_Idle:13805	W0_Scoreboard:35935	W1:243	W2:0	W3:0	W4:0	W5:0	W6:0	W7:0	W8:0	W9:0	W10:0	W11:0	W12:0	W13:0	W14:0	W15:0	W16:0	W17:0	W18:0	W19:0	W20:0	W21:0	W22:0	W23:0	W24:0	W25:0	W26:0	W27:0	W28:0	W29:0	W30:0	W31:0	W32:30720
traffic_breakdown_coretomem[CONST_ACC_R] = 120 {8:15,}
traffic_breakdown_coretomem[GLOBAL_ACC_R] = 4184 {8:523,}
traffic_breakdown_coretomem[GLOBAL_ACC_W] = 1040 {40:26,}
traffic_breakdown_coretomem[INST_ACC_R] = 256 {8:32,}
traffic_breakdown_memtocore[CONST_ACC_R] = 1080 {72:15,}
traffic_breakdown_memtocore[GLOBAL_ACC_R] = 71128 {136:523,}
traffic_breakdown_memtocore[GLOBAL_ACC_W] = 208 {8:26,}
traffic_breakdown_memtocore[INST_ACC_R] = 4352 {136:32,}
maxmrqlatency = 398 
maxdqlatency = 0 
maxmflatency = 692 
averagemflatency = 401 
max_icnt2mem_latency = 36 
max_icnt2sh_latency = 6159 
mrq_lat_table:124 	3 	5 	46 	26 	37 	104 	78 	125 	0 	0 	0 	0 	0 	0 	0 	0 	0 	0 	0 	0 	0 	0 	0 	0 	0 	0 	0 	0 	0 	0 	0 	
dq_lat_table:0 	0 	0 	0 	0 	0 	0 	0 	0 	0 	0 	0 	0 	0 	0 	0 	0 	0 	0 	0 	0 	0 	0 	0 	0 	0 	0 	0 	0 	0 	0 	0 	
mf_lat_table:0 	0 	0 	0 	0 	0 	0 	24 	387 	153 	0 	0 	0 	0 	0 	0 	0 	0 	0 	0 	0 	0 	0 	0 	0 	0 	0 	0 	0 	0 	0 	0 	
icnt2mem_lat_table:0 	0 	0 	585 	8 	3 	0 	0 	0 	0 	0 	0 	0 	0 	0 	0 	0 	0 	0 	0 	0 	0 	0 	0 	
icnt2sh_lat_table:0 	0 	0 	511 	27 	0 	0 	0 	0 	0 	2 	9 	15 	0 	0 	0 	0 	0 	0 	0 	0 	0 	0 	0 	
mf_lat_pw_table:0 	0 	0 	0 	0 	0 	0 	6 	5 	0 	0 	0 	0 	0 	0 	0 	0 	0 	0 	0 	0 	0 	0 	0 	0 	0 	0 	0 	0 	0 	0 	0 	
maximum concurrent accesses to same row:
dram[0]:         1         0         0         0         0         0         0         0         0         0         0         0         0         0         0         0 
dram[1]:         0         0         0         0         0         0         0         0         0         0         0         0         0         0         0         0 
dram[2]:         0         0         0         0         0         0         0         0         0         0         0         0         0         0         0         0 
dram[3]:         0         0         0         0         0         0         0         0         0         0         0         0         0         0         0         0 
dram[4]:         0         0         0         0         0         0         0         0         0         0        22        22         0         0         0         0 
dram[5]:         0         0         0         0         0         0         0         0         0         0         0         0         0         0         0         0 
maximum service time to same row:
dram[0]:      1637         0      6138         0         0         0         0         0         0         0       978       940      1878      1875         0         0 
dram[1]:      1251         0         0         0         0         0         0         0         0         0       991       944      1797      1807         0      4131 
dram[2]:         0         0         0      3226         0      1638         0         0         0      4479       985       953      1822      1594         0         0 
dram[3]:         0         0         0      5304         0      4893         0         0         0         0       988       956      1837      1885         0         0 
dram[4]:         0      4057         0         0         0      5718         0         0         0         0      1281      2680      1863      1838      3297         0 
dram[5]:         0         0         0         0         0         0         0         0         0         0       960       972      1821      1903      5791         0 
average row accesses per activate:
dram[0]:  1.000000      -nan  2.000000      -nan      -nan      -nan      -nan      -nan      -nan      -nan 20.000000 22.000000 22.000000 22.000000      -nan      -nan 
dram[1]:  2.000000      -nan      -nan      -nan      -nan      -nan      -nan      -nan      -nan      -nan 20.000000 22.000000 24.000000 22.000000      -nan  3.000000 
dram[2]:      -nan      -nan      -nan  2.000000      -nan  1.000000      -nan      -nan      -nan  2.000000 20.000000 22.000000 22.000000 22.000000      -nan      -nan 
dram[3]:      -nan      -nan      -nan  2.000000      -nan  2.000000      -nan      -nan      -nan      -nan 20.000000 22.000000 22.000000 20.000000      -nan      -nan 
dram[4]:      -nan  2.000000      -nan      -nan      -nan  2.000000      -nan      -nan      -nan      -nan  8.333333 12.000000 22.000000 20.000000  2.000000      -nan 
dram[5]:      -nan      -nan      -nan      -nan      -nan      -nan      -nan      -nan      -nan      -nan 22.000000 22.000000 22.000000 20.000000  1.000000      -nan 
average row locality = 548/43 = 12.744186
number of total memory accesses made:
dram[0]:         0         0         0         0         0         0         0         0         0         0         0         0         0         0         0         0 
dram[1]:         0         0         0         0         0         0         0         0         0         0         0         0         0         0         0         0 
dram[2]:         0         0         0         0         0         0         0         0         0         0         0         0         0         0         0         0 
dram[3]:         0         0         0         0         0         0         0         0         0         0         0         0         0         0         0         0 
dram[4]:         0         0         0         0         0         0         0         0         0         0         0         0         0         0         0         0 
dram[5]:         0         0         0         0         0         0         0         0         0         0         0         0         0         0         0         0 
total accesses: 0
min_bank_accesses = 0!
min_chip_accesses = 0!
number of total read accesses:
dram[0]:         4         0         1         0         0         0         0         0         0         0        20        22        22        22         0         0 
dram[1]:         2         0         0         0         0         0         0         0         0         0        20        22        24        22         0         3 
dram[2]:         0         0         0         1         0         1         0         0         0         1        20        22        22        21         0         0 
dram[3]:         0         0         0         1         0         1         0         0         0         0        20        22        22        20         0         0 
dram[4]:         0         1         0         0         0         1         0         0         0         0        24        23        22        20         2         0 
dram[5]:         0         0         0         0         0         0         0         0         0         0        22        22        22        20         1         0 
total reads: 538
min_bank_accesses = 0!
chip skew: 93/86 = 1.08
number of total write accesses:
dram[0]:         0         0         1         0         0         0         0         0         0         0         0         0         0         0         0         0 
dram[1]:         0         0         0         0         0         0         0         0         0         0         0         0         0         0         0         0 
dram[2]:         0         0         0         1         0         0         0         0         0         1         0         0         0         1         0         0 
dram[3]:         0         0         0         1         0         1         0         0         0         0         0         0         0         0         0         0 
dram[4]:         0         1         0         0         0         1         0         0         0         0         1         1         0         0         0         0 
dram[5]:         0         0         0         0         0         0         0         0         0         0         0         0         0         0         0         0 
total reads: 10
min_bank_accesses = 0!
min_chip_accesses = 0!
average mf latency per bank:
dram[0]:       1109    none         127    none      none      none      none      none      none      none         322       495       332       511    none      none  
dram[1]:          0    none      none      none      none      none      none      none      none      none         340       478       324       516    none         275
dram[2]:     none      none      none         127    none         281    none      none      none         127       325       494       327       494    none      none  
dram[3]:     none      none      none         127    none         127    none      none      none      none         334       512       325       497    none      none  
dram[4]:     none         127    none      none      none         127    none      none      none      none         357       487       322       527       277    none  
dram[5]:     none      none      none      none      none      none      none      none      none      none         325       511       332       541       281    none  
maximum mf latency per bank:
dram[0]:        296         0       254         0         0         0         0         0         0         0       379       650       407       643         0         0
dram[1]:          0         0         0         0         0         0         0         0         0         0       388       628       432       614         0       282
dram[2]:          0         0         0       254         0       281         0         0         0       254       396       632       433       671         0         0
dram[3]:          0         0         0       254         0       254         0         0         0         0       392       662       394       586         0         0
dram[4]:          0       254         0         0         0       254         0         0         0         0       407       678       413       692       282         0
dram[5]:          0         0         0         0         0         0         0         0         0         0       401       665       435       656       281         0

Number of Memory Banks Accessed per Memory Operation per Warp (from 0):
0	0	0	0	0	0	0	0	0	0	0	0	0	0	0	0	0	0	0	0	0	0	0	0	0	0	0	0	0	0	0	0	0	0	0	0	0	0	0	0	0	0	0	0	0	0	0	0	0	0	0	0	0	0	0	0	0	0	0	0	0	0	0	0	0	0	0	0	0	0	0	0	0	0	0	0	0	0	0	0	0	0	0	0	0	0	0	0	0	0	0	0	0	0	0	0	
Average # of Memory Banks Accessed per Memory Operation per Warp=-nan

position of mrq chosen
0	0	0	0	0	0	0	0	0	0	0	0	0	0	0	0	

average position of mrq chosen = -nan
Memory Partition 0: 
Cache L2_bank_000:
MSHR contents
MSHR: tag=0x80234400, atomic=0 1 entries : 0x7f37e41b0d60 :  mf: uid= 33775, sid01:w00, part=0, addr=0x80234440, load , size=32, unknown  status = IN_PARTITION_DRAM (6159), 

Cache L2_bank_001:
MSHR contents

In Dram Latency Queue (total = 0): 
DRAM[0]: 16 bks, busW=1 BL=8 CL=12, tRRD=2 tCCD=6, tRCD=12 tRAS=28 tRP=12 tRC=40
n_cmd=8130 n_nop=7393 n_act=9 n_pre=3 n_req=92 n_rd=723 n_write=2 bw_util=0.1784
n_activity=2289 dram_eff=0.6335
bk0: 32a 7949i bk1: 0a 8124i bk2: 3a 8099i bk3: 0a 8126i bk4: 0a 8127i bk5: 0a 8127i bk6: 0a 8130i bk7: 0a 8131i bk8: 0a 8133i bk9: 0a 8133i bk10: 160a 7647i bk11: 176a 7138i bk12: 176a 7533i bk13: 176a 6995i bk14: 0a 8129i bk15: 0a 8129i 
dram_util_bins: 0 0 0 0 0 0 0 0 0 0
dram_eff_bins: 0 0 0 0 0 0 0 0 0 0
mrqq: max=16 avg=1.80185
Memory Partition 1: 
Cache L2_bank_002:
MSHR contents

Cache L2_bank_003:
MSHR contents

In Dram Latency Queue (total = 0): 
DRAM[1]: 16 bks, busW=1 BL=8 CL=12, tRRD=2 tCCD=6, tRCD=12 tRAS=28 tRP=12 tRC=40
n_cmd=8130 n_nop=7380 n_act=6 n_pre=0 n_req=93 n_rd=744 n_write=0 bw_util=0.183
n_activity=2296 dram_eff=0.6481
bk0: 16a 8056i bk1: 0a 8127i bk2: 0a 8128i bk3: 0a 8129i bk4: 0a 8129i bk5: 0a 8129i bk6: 0a 8129i bk7: 0a 8132i bk8: 0a 8133i bk9: 0a 8133i bk10: 160a 7636i bk11: 176a 7155i bk12: 192a 7337i bk13: 176a 6876i bk14: 0a 8128i bk15: 24a 8051i 
dram_util_bins: 0 0 0 0 0 0 0 0 0 0
dram_eff_bins: 0 0 0 0 0 0 0 0 0 0
mrqq: max=16 avg=1.79668
Memory Partition 2: 
Cache L2_bank_004:
MSHR contents

Cache L2_bank_005:
MSHR contents

In Dram Latency Queue (total = 0): 
DRAM[2]: 16 bks, busW=1 BL=8 CL=12, tRRD=2 tCCD=6, tRCD=12 tRAS=28 tRP=12 tRC=40
n_cmd=8130 n_nop=7413 n_act=7 n_pre=0 n_req=91 n_rd=704 n_write=6 bw_util=0.1747
n_activity=2254 dram_eff=0.63
bk0: 0a 8130i bk1: 0a 8131i bk2: 0a 8131i bk3: 8a 8087i bk4: 0a 8129i bk5: 8a 8095i bk6: 0a 8129i bk7: 0a 8131i bk8: 0a 8132i bk9: 8a 8088i bk10: 160a 7606i bk11: 176a 7118i bk12: 176a 7371i bk13: 168a 6896i bk14: 0a 8129i bk15: 0a 8129i 
dram_util_bins: 0 0 0 0 0 0 0 0 0 0
dram_eff_bins: 0 0 0 0 0 0 0 0 0 0
mrqq: max=16 avg=1.78684
Memory Partition 3: 
Cache L2_bank_006:
MSHR contents

Cache L2_bank_007:
MSHR contents

In Dram Latency Queue (total = 0): 
DRAM[3]: 16 bks, busW=1 BL=8 CL=12, tRRD=2 tCCD=6, tRCD=12 tRAS=28 tRP=12 tRC=40
n_cmd=8130 n_nop=7432 n_act=6 n_pre=0 n_req=88 n_rd=688 n_write=4 bw_util=0.1702
n_activity=2156 dram_eff=0.6419
bk0: 0a 8129i bk1: 0a 8131i bk2: 0a 8131i bk3: 8a 8088i bk4: 0a 8130i bk5: 8a 8086i bk6: 0a 8128i bk7: 0a 8129i bk8: 0a 8131i bk9: 0a 8132i bk10: 160a 7639i bk11: 176a 7161i bk12: 176a 7462i bk13: 160a 7043i bk14: 0a 8128i bk15: 0a 8128i 
dram_util_bins: 0 0 0 0 0 0 0 0 0 0
dram_eff_bins: 0 0 0 0 0 0 0 0 0 0
mrqq: max=16 avg=1.67023
Memory Partition 4: 
Cache L2_bank_008:
MSHR contents

Cache L2_bank_009:
MSHR contents

In Dram Latency Queue (total = 0): 
DRAM[4]: 16 bks, busW=1 BL=8 CL=12, tRRD=2 tCCD=6, tRCD=12 tRAS=28 tRP=12 tRC=40
n_cmd=8130 n_nop=7365 n_act=10 n_pre=3 n_req=97 n_rd=744 n_write=8 bw_util=0.185
n_activity=2435 dram_eff=0.6177
bk0: 0a 8126i bk1: 8a 8086i bk2: 0a 8129i bk3: 0a 8129i bk4: 0a 8129i bk5: 8a 8089i bk6: 0a 8132i bk7: 0a 8133i bk8: 0a 8134i bk9: 0a 8134i bk10: 192a 7375i bk11: 184a 7036i bk12: 176a 7460i bk13: 160a 6948i bk14: 16a 8069i bk15: 0a 8124i 
dram_util_bins: 0 0 0 0 0 0 0 0 0 0
dram_eff_bins: 0 0 0 0 0 0 0 0 0 0
mrqq: max=16 avg=1.85387
Memory Partition 5: 
Cache L2_bank_010:
MSHR contents

Cache L2_bank_011:
MSHR contents

In Dram Latency Queue (total = 0): 
DRAM[5]: 16 bks, busW=1 BL=8 CL=12, tRRD=2 tCCD=6, tRCD=12 tRAS=28 tRP=12 tRC=40
n_cmd=8130 n_nop=7429 n_act=5 n_pre=0 n_req=87 n_rd=696 n_write=0 bw_util=0.1712
n_activity=2166 dram_eff=0.6427
bk0: 0a 8127i bk1: 0a 8128i bk2: 0a 8129i bk3: 0a 8129i bk4: 0a 8130i bk5: 0a 8131i bk6: 0a 8131i bk7: 0a 8131i bk8: 0a 8131i bk9: 0a 8131i bk10: 176a 7574i bk11: 176a 7142i bk12: 176a 7387i bk13: 160a 7026i bk14: 8a 8093i bk15: 0a 8126i 
dram_util_bins: 0 0 0 0 0 0 0 0 0 0
dram_eff_bins: 0 0 0 0 0 0 0 0 0 0
mrqq: max=16 avg=1.90886

========= L2 cache stats =========
L2_cache_bank[0]: Access = 77, Miss = 47, Miss_rate = 0.610, Pending_hits = 6, Reservation_fails = 261
L2_cache_bank[1]: Access = 44, Miss = 44, Miss_rate = 1.000, Pending_hits = 0, Reservation_fails = 0
L2_cache_bank[2]: Access = 61, Miss = 46, Miss_rate = 0.754, Pending_hits = 3, Reservation_fails = 138
L2_cache_bank[3]: Access = 47, Miss = 47, Miss_rate = 1.000, Pending_hits = 0, Reservation_fails = 0
L2_cache_bank[4]: Access = 42, Miss = 42, Miss_rate = 1.000, Pending_hits = 0, Reservation_fails = 0
L2_cache_bank[5]: Access = 46, Miss = 46, Miss_rate = 1.000, Pending_hits = 0, Reservation_fails = 0
L2_cache_bank[6]: Access = 45, Miss = 42, Miss_rate = 0.933, Pending_hits = 0, Reservation_fails = 0
L2_cache_bank[7]: Access = 46, Miss = 44, Miss_rate = 0.957, Pending_hits = 0, Reservation_fails = 0
L2_cache_bank[8]: Access = 56, Miss = 48, Miss_rate = 0.857, Pending_hits = 0, Reservation_fails = 0
L2_cache_bank[9]: Access = 45, Miss = 45, Miss_rate = 1.000, Pending_hits = 0, Reservation_fails = 0
L2_cache_bank[10]: Access = 45, Miss = 45, Miss_rate = 1.000, Pending_hits = 0, Reservation_fails = 0
L2_cache_bank[11]: Access = 42, Miss = 42, Miss_rate = 1.000, Pending_hits = 0, Reservation_fails = 0
L2_total_cache_accesses = 596
L2_total_cache_misses = 538
L2_total_cache_miss_rate = 0.9027
L2_total_cache_pending_hits = 9
L2_total_cache_reservation_fails = 399
L2_total_cache_breakdown:
	L2_cache_stats_breakdown[GLOBAL_ACC_R][MISS] = 523
	L2_cache_stats_breakdown[CONST_ACC_R][HIT] = 11
	L2_cache_stats_breakdown[CONST_ACC_R][HIT_RESERVED] = 3
	L2_cache_stats_breakdown[CONST_ACC_R][MISS] = 1
	L2_cache_stats_breakdown[CONST_ACC_R][RESERVATION_FAIL] = 132
	L2_cache_stats_breakdown[GLOBAL_ACC_W][HIT] = 16
	L2_cache_stats_breakdown[GLOBAL_ACC_W][MISS] = 10
	L2_cache_stats_breakdown[INST_ACC_R][HIT] = 22
	L2_cache_stats_breakdown[INST_ACC_R][HIT_RESERVED] = 6
	L2_cache_stats_breakdown[INST_ACC_R][MISS] = 4
	L2_cache_stats_breakdown[INST_ACC_R][RESERVATION_FAIL] = 267
L2_cache_data_port_util = 0.002
L2_cache_fill_port_util = 0.029

icnt_total_pkts_mem_to_simt=2846
icnt_total_pkts_simt_to_mem=622
LD_mem_lat_dist  0 0 0 0 0 0 0 0 0 0 0 0 0 0 0 0 0 0 0 0 0 0 0 0 0 0 0
ST_mem_lat_dist  0 0 0 0 0 0 0 0 0 0 0 0 0 0 0 0 0 0 0 0 0 0 0 0 0 0 0
----------------------------Interconnect-DETAILS--------------------------------
Class 0:
Packet latency average = 8.58054
	minimum = 6
	maximum = 34
Network latency average = 8.39094
	minimum = 6
	maximum = 34
Slowest packet = 14
Flit latency average = 6.48702
	minimum = 6
	maximum = 34
Slowest flit = 14
Fragmentation average = 0
	minimum = 0
	maximum = 0
Injected packet rate average = 0.00716691
	minimum = 0.00535714 (at node 0)
	maximum = 0.0125 (at node 15)
Accepted packet rate average = 0.00716691
	minimum = 0.00535714 (at node 0)
	maximum = 0.0125 (at node 15)
Injected flit rate average = 0.0208514
	minimum = 0.00535714 (at node 0)
	maximum = 0.0556818 (at node 15)
Accepted flit rate average= 0.0208514
	minimum = 0.00681818 (at node 19)
	maximum = 0.0444805 (at node 1)
Injected packet length average = 2.9094
Accepted packet length average = 2.9094
Total in-flight flits = 0 (0 measured)
====== Overall Traffic Statistics ======
====== Traffic class 0 ======
Packet latency average = 8.58054 (1 samples)
	minimum = 6 (1 samples)
	maximum = 34 (1 samples)
Network latency average = 8.39094 (1 samples)
	minimum = 6 (1 samples)
	maximum = 34 (1 samples)
Flit latency average = 6.48702 (1 samples)
	minimum = 6 (1 samples)
	maximum = 34 (1 samples)
Fragmentation average = 0 (1 samples)
	minimum = 0 (1 samples)
	maximum = 0 (1 samples)
Injected packet rate average = 0.00716691 (1 samples)
	minimum = 0.00535714 (1 samples)
	maximum = 0.0125 (1 samples)
Accepted packet rate average = 0.00716691 (1 samples)
	minimum = 0.00535714 (1 samples)
	maximum = 0.0125 (1 samples)
Injected flit rate average = 0.0208514 (1 samples)
	minimum = 0.00535714 (1 samples)
	maximum = 0.0556818 (1 samples)
Accepted flit rate average = 0.0208514 (1 samples)
	minimum = 0.00681818 (1 samples)
	maximum = 0.0444805 (1 samples)
Injected packet size average = 2.9094 (1 samples)
Accepted packet size average = 2.9094 (1 samples)
Hops average = 1 (1 samples)
----------------------------END-of-Interconnect-DETAILS-------------------------


gpgpu_simulation_time = 0 days, 0 hrs, 0 min, 4 sec (4 sec)
gpgpu_simulation_rate = 229434 (inst/sec)
gpgpu_simulation_rate = 1540 (cycle/sec)
GPGPU-Sim: synchronize waiting for inactive GPU simulation
[...]
traffic_breakdown_coretomem[INST_ACC_R] = 480 {8:60,}
traffic_breakdown_memtocore[CONST_ACC_R] = 1080 {72:15,}
traffic_breakdown_memtocore[GLOBAL_ACC_R] = 84124568 {136:618563,}
traffic_breakdown_memtocore[GLOBAL_ACC_W] = 3304968 {8:413121,}
traffic_breakdown_memtocore[INST_ACC_R] = 8160 {136:60,}
maxmrqlatency = 2406 
maxdqlatency = 0 
maxmflatency = 4176 
averagemflatency = 401 
max_icnt2mem_latency = 2018 
max_icnt2sh_latency = 773679 
mrq_lat_table:35923 	2810 	980 	3433 	7401 	6163 	2852 	1571 	1338 	721 	65 	4 	0 	0 	0 	0 	0 	0 	0 	0 	0 	0 	0 	0 	0 	0 	0 	0 	0 	0 	0 	0 	
dq_lat_table:0 	0 	0 	0 	0 	0 	0 	0 	0 	0 	0 	0 	0 	0 	0 	0 	0 	0 	0 	0 	0 	0 	0 	0 	0 	0 	0 	0 	0 	0 	0 	0 	
mf_lat_table:0 	0 	0 	0 	0 	0 	0 	136243 	700782 	191104 	2785 	781 	4 	0 	0 	0 	0 	0 	0 	0 	0 	0 	0 	0 	0 	0 	0 	0 	0 	0 	0 	0 	
icnt2mem_lat_table:0 	0 	0 	85553 	29985 	79942 	325186 	235375 	269684 	5820 	214 	0 	0 	0 	0 	0 	0 	0 	0 	0 	0 	0 	0 	0 	
icnt2sh_lat_table:0 	0 	0 	42710 	289508 	268072 	18092 	196 	0 	0 	2 	9 	31 	813 	8957 	17147 	43854 	98691 	166933 	76684 	0 	0 	0 	0 	
mf_lat_pw_table:0 	0 	0 	0 	0 	0 	0 	110 	1409 	18 	16 	0 	0 	0 	0 	0 	0 	0 	0 	0 	0 	0 	0 	0 	0 	0 	0 	0 	0 	0 	0 	0 	
maximum concurrent accesses to same row:
dram[0]:        24        31        22        21        24        28        32        33        32        32        31        25        33        35        33        34 
dram[1]:        29        30        51        35        24        21        30        30        21        20        28        39        32        32        41        35 
dram[2]:        31        25        54        32        32        32        33        35        30        32        29        25        33        34        45        55 
dram[3]:        29        25        31        33        30        34        28        26        29        24        21        22        32        33        33        34 
dram[4]:        32        30        36        26        27        24        32        32        33        32        22        22        31        36        33        33 
dram[5]:        31        23        45        22        20        22        30        28        19        25        29        31        32        30        32        32 
maximum service time to same row:
dram[0]:     58397     56689     71235     38136     70317     52896     43491     51464     70707     71296     47979     58361     94816    102427     97834     88452 
dram[1]:     58766     73126     70769     50263     70772     73068     39964     47121     42409     63981     67048    105030    102082    100197     75267     90931 
dram[2]:     58024     45340     68059     55526     56272     64915     48571     58543     52978     61572     53454     89645     92459     81428    142280    146878 
dram[3]:     54331     37522     85107     99780     89685     51291     59182     42569     41210     44235     46806     51938     69034     99078     70800     73609 
dram[4]:     61744     67441     56269     79992     71910     63257     73579     64105     79484     59144     37321     45359     92250     92343     68349     97835 
dram[5]:     52454     43935     63152     44956    122153     53844     45847     53823     68172     36607     56584     43058     93984     76397    133284    133528 
average row accesses per activate:
dram[0]:  3.642458  2.996047  3.461539  3.506912  4.204082  3.773481  3.419214  4.083333  4.547771  4.642424  3.316092  3.175258  4.567010  4.472222  7.263158  5.973333 
dram[1]:  4.304598  4.061856  3.657408  3.818182  3.271493  3.226667  3.406504  3.282869  3.302905  3.398305  3.875000  3.272277  3.932203  4.580952  5.085106  6.293334 
dram[2]:  3.400966  3.504902  4.204545  4.218391  4.248175  4.258065  4.508772  4.641510  3.612745  3.568720  2.881633  3.089286  4.345133  4.490909  6.183099  7.649123 
dram[3]:  3.372807  3.253165  3.889447  3.850267  3.980892  3.845304  4.076503  4.098901  3.447964  3.286920  2.865306  3.017857  4.345133  5.020000  6.863636  6.391304 
dram[4]:  4.091429  4.145349  3.647959  3.663213  3.335000  3.834286  3.780105  4.117284  4.462857  4.061224  3.388889  3.519774  4.032787  4.833333  6.822581  8.312500 
dram[5]:  3.303167  3.235060  3.414747  2.871886  3.602094  3.304545  4.760000  4.421348  3.166667  3.261225  3.403226  2.978070  4.066667  3.984127  6.156250  6.603175 
average row locality = 63261/16590 = 3.813201
number of total memory accesses made:
dram[0]:         0         0         0         0         0         0         0         0         0         0         0         0         0         0         0         0 
dram[1]:         0         0         0         0         0         0         0         0         0         0         0         0         0         0         0         0 
dram[2]:         0         0         0         0         0         0         0         0         0         0         0         0         0         0         0         0 
dram[3]:         0         0         0         0         0         0         0         0         0         0         0         0         0         0         0         0 
dram[4]:         0         0         0         0         0         0         0         0         0         0         0         0         0         0         0         0 
dram[5]:         0         0         0         0         0         0         0         0         0         0         0         0         0         0         0         0 
total accesses: 0
min_bank_accesses = 0!
min_chip_accesses = 0!
number of total read accesses:
dram[0]:       481       529       516       533       486       508       597       569       542       570       488       512       420       446       414       448 
dram[1]:       522       540       534       541       529       556       633       631       592       595       548       524       430       446       475       471 
dram[2]:       506       510       519       510       465       509       581       567       565       583       560       565       463       459       436       435 
dram[3]:       535       534       544       509       477       519       575       579       578       589       559       546       454       467       453       441 
dram[4]:       512       512       515       504       514       505       568       520       587       591       533       507       457       438       422       399 
dram[5]:       516       554       538       566       511       549       554       595       599       588       529       542       448       462       394       416 
total reads: 49663
bank skew: 633/394 = 1.61
chip skew: 8567/8059 = 1.06
number of total write accesses:
dram[0]:       171       229       204       228       132       175       186       166       172       196        89       104        23        37         0         0 
dram[1]:       227       248       256       257       194       170       205       193       204       207       165       137        34        35         3         1 
dram[2]:       198       205       221       224       117       151       190       171       172       170       146       127        28        35         3         1 
dram[3]:       234       237       230       211       148       177       171       167       184       190       143       130        37        35         0         0 
dram[4]:       204       201       200       203       153       166       154       147       194       205       138       116        35        26         1         0 
dram[5]:       214       258       203       241       177       178       160       192       199       211       104       137        40        40         0         0 
total reads: 13598
min_bank_accesses = 0!
chip skew: 2536/2112 = 1.20
average mf latency per bank:
dram[0]:       3114      2755      3157      3031      3746      3394      3148      3328      3174      3086      7292      7129     14668     13813     21924     20475
dram[1]:       2745      2710      2867      3002      3273      3435      3041      3209      2908      2966      5744      6728     14156     14222     19477     20355
dram[2]:       2991      2884      3096      3100      4010      3698      3270      3432      3228      3291      6043      6689     13428     13951     20617     21144
dram[3]:       2746      2634      2962      3175      3677      3379      3311      3369      2982      2895      6005      6474     13523     13741     20284     21350
dram[4]:       3912      3104      4231      3305      4689      3662      4572      3738      4020      2980     38829      7330     18256     15107     29537     23669
dram[5]:       2768      2653      3004      2954      3267      3295      3188      3198      2741      2864      6762      6606     12998     13795     22484     22364
maximum mf latency per bank:
dram[0]:       2518      3317      3439      2350      2619      2667      1896      2329      2564      4160      2677      2546      2577      3448      2152      2732
dram[1]:       1474      1579      1321      1153      1596      1339      1569      1435      1285      1971      1182      1429      1350      1309      1179      1221
dram[2]:       2156      2119      3558      2997      2605      1977      2559      2837      2268      2382      3180      2720      2810      3169      2213      2378
dram[3]:       1388      1215      1499      1287      1215      1199      1436      1937       928      2259      1411      1316      1178      1269      1479      1209
dram[4]:       3801      3466      4176      2549      2362      3562      3001      2482      3498      2569      3268      2665      3564      2718      3308      2875
dram[5]:       1803      1737      1926      1170      1045      1447      1564      1433      2606      1401      1221      1339      1522      1512      1535      1644

Number of Memory Banks Accessed per Memory Operation per Warp (from 0):
0	0	0	0	0	0	0	0	0	0	0	0	0	0	0	0	0	0	0	0	0	0	0	0	0	0	0	0	0	0	0	0	0	0	0	0	0	0	0	0	0	0	0	0	0	0	0	0	0	0	0	0	0	0	0	0	0	0	0	0	0	0	0	0	0	0	0	0	0	0	0	0	0	0	0	0	0	0	0	0	0	0	0	0	0	0	0	0	0	0	0	0	0	0	0	0	
Average # of Memory Banks Accessed per Memory Operation per Warp=-nan

position of mrq chosen
0	0	0	0	0	0	0	0	0	0	0	0	0	0	0	0	

average position of mrq chosen = -nan
Memory Partition 0: 
Cache L2_bank_000:
MSHR contents

Cache L2_bank_001:
MSHR contents

In Dram Latency Queue (total = 0): 
DRAM[0]: 16 bks, busW=1 BL=8 CL=12, tRRD=2 tCCD=6, tRCD=12 tRAS=28 tRP=12 tRC=40
n_cmd=1023599 n_nop=943653 n_act=2621 n_pre=2605 n_req=10171 n_rd=64472 n_write=10248 bw_util=0.146
n_activity=277688 dram_eff=0.5382
bk0: 3848a 993885i bk1: 4232a 987564i bk2: 4128a 988772i bk3: 4264a 979596i bk4: 3888a 993423i bk5: 4064a 990705i bk6: 4776a 984459i bk7: 4552a 980627i bk8: 4336a 988478i bk9: 4560a 983666i bk10: 3904a 994009i bk11: 4096a 991237i bk12: 3360a 999287i bk13: 3568a 995402i bk14: 3312a 1004770i bk15: 3584a 1001388i 
dram_util_bins: 0 0 0 0 0 0 0 0 0 0
dram_eff_bins: 0 0 0 0 0 0 0 0 0 0
mrqq: max=16 avg=0.500459
Memory Partition 1: 
Cache L2_bank_002:
MSHR contents

Cache L2_bank_003:
MSHR contents

In Dram Latency Queue (total = 0): 
DRAM[1]: 16 bks, busW=1 BL=8 CL=12, tRRD=2 tCCD=6, tRCD=12 tRAS=28 tRP=12 tRC=40
n_cmd=1023599 n_nop=936903 n_act=2991 n_pre=2975 n_req=11103 n_rd=68536 n_write=12194 bw_util=0.1577
n_activity=301118 dram_eff=0.5362
bk0: 4176a 993188i bk1: 4320a 989160i bk2: 4272a 985881i bk3: 4328a 987451i bk4: 4232a 988553i bk5: 4448a 989449i bk6: 5064a 984723i bk7: 5048a 981390i bk8: 4736a 987623i bk9: 4760a 985588i bk10: 4384a 992609i bk11: 4192a 992205i bk12: 3440a 1001512i bk13: 3568a 999936i bk14: 3800a 1003884i bk15: 3768a 1003214i 
dram_util_bins: 0 0 0 0 0 0 0 0 0 0
dram_eff_bins: 0 0 0 0 0 0 0 0 0 0
mrqq: max=16 avg=0.342202
Memory Partition 2: 
Cache L2_bank_004:
MSHR contents

Cache L2_bank_005:
MSHR contents

In Dram Latency Queue (total = 0): 
DRAM[2]: 16 bks, busW=1 BL=8 CL=12, tRRD=2 tCCD=6, tRCD=12 tRAS=28 tRP=12 tRC=40
n_cmd=1023599 n_nop=942071 n_act=2618 n_pre=2602 n_req=10392 n_rd=65864 n_write=10444 bw_util=0.1491
n_activity=280972 dram_eff=0.5432
bk0: 4048a 992909i bk1: 4080a 986544i bk2: 4152a 986234i bk3: 4080a 982651i bk4: 3720a 997891i bk5: 4072a 991902i bk6: 4648a 983210i bk7: 4536a 982504i bk8: 4520a 987932i bk9: 4664a 986554i bk10: 4480a 987791i bk11: 4520a 986908i bk12: 3704a 996487i bk13: 3672a 996987i bk14: 3488a 1004871i bk15: 3480a 1004074i 
dram_util_bins: 0 0 0 0 0 0 0 0 0 0
dram_eff_bins: 0 0 0 0 0 0 0 0 0 0
mrqq: max=16 avg=0.51064
Memory Partition 3: 
Cache L2_bank_006:
MSHR contents

Cache L2_bank_007:
MSHR contents

In Dram Latency Queue (total = 0): 
DRAM[3]: 16 bks, busW=1 BL=8 CL=12, tRRD=2 tCCD=6, tRCD=12 tRAS=28 tRP=12 tRC=40
n_cmd=1023599 n_nop=940083 n_act=2829 n_pre=2813 n_req=10653 n_rd=66872 n_write=11002 bw_util=0.1522
n_activity=289995 dram_eff=0.5371
bk0: 4280a 987811i bk1: 4272a 987327i bk2: 4352a 987932i bk3: 4072a 988435i bk4: 3816a 994903i bk5: 4152a 993506i bk6: 4600a 987817i bk7: 4632a 985277i bk8: 4624a 987038i bk9: 4712a 983053i bk10: 4472a 990589i bk11: 4368a 990339i bk12: 3632a 999406i bk13: 3736a 998261i bk14: 3624a 1003455i bk15: 3528a 1004692i 
dram_util_bins: 0 0 0 0 0 0 0 0 0 0
dram_eff_bins: 0 0 0 0 0 0 0 0 0 0
mrqq: max=16 avg=0.363031
Memory Partition 4: 
Cache L2_bank_008:
MSHR contents

Cache L2_bank_009:
MSHR contents

In Dram Latency Queue (total = 0): 
DRAM[4]: 16 bks, busW=1 BL=8 CL=12, tRRD=2 tCCD=6, tRCD=12 tRAS=28 tRP=12 tRC=40
n_cmd=1023599 n_nop=943435 n_act=2538 n_pre=2522 n_req=10227 n_rd=64672 n_write=10432 bw_util=0.1467
n_activity=279991 dram_eff=0.5365
bk0: 4096a 991053i bk1: 4096a 986815i bk2: 4120a 989269i bk3: 4032a 982898i bk4: 4112a 990259i bk5: 4040a 986099i bk6: 4544a 983142i bk7: 4160a 988543i bk8: 4696a 983885i bk9: 4728a 982539i bk10: 4264a 988879i bk11: 4056a 990868i bk12: 3656a 996748i bk13: 3504a 998518i bk14: 3376a 1004004i bk15: 3192a 1004022i 
dram_util_bins: 0 0 0 0 0 0 0 0 0 0
dram_eff_bins: 0 0 0 0 0 0 0 0 0 0
mrqq: max=16 avg=0.528728
Memory Partition 5: 
Cache L2_bank_010:
MSHR contents

Cache L2_bank_011:
MSHR contents

In Dram Latency Queue (total = 0): 
DRAM[5]: 16 bks, busW=1 BL=8 CL=12, tRRD=2 tCCD=6, tRCD=12 tRAS=28 tRP=12 tRC=40
n_cmd=1023599 n_nop=939409 n_act=2993 n_pre=2977 n_req=10715 n_rd=66888 n_write=11332 bw_util=0.1528
n_activity=291685 dram_eff=0.5363
bk0: 4128a 989739i bk1: 4432a 979346i bk2: 4304a 984073i bk3: 4528a 983330i bk4: 4088a 989640i bk5: 4392a 990669i bk6: 4432a 985800i bk7: 4760a 981522i bk8: 4792a 984371i bk9: 4704a 982079i bk10: 4232a 996296i bk11: 4336a 989921i bk12: 3584a 999411i bk13: 3696a 996683i bk14: 3152a 1005201i bk15: 3328a 1002460i 
dram_util_bins: 0 0 0 0 0 0 0 0 0 0
dram_eff_bins: 0 0 0 0 0 0 0 0 0 0
mrqq: max=16 avg=0.410705

========= L2 cache stats =========
L2_cache_bank[0]: Access = 81815, Miss = 3944, Miss_rate = 0.048, Pending_hits = 25, Reservation_fails = 2376
L2_cache_bank[1]: Access = 82520, Miss = 4115, Miss_rate = 0.050, Pending_hits = 14, Reservation_fails = 6585
L2_cache_bank[2]: Access = 82059, Miss = 4263, Miss_rate = 0.052, Pending_hits = 29, Reservation_fails = 138
L2_cache_bank[3]: Access = 83128, Miss = 4304, Miss_rate = 0.052, Pending_hits = 27, Reservation_fails = 0
L2_cache_bank[4]: Access = 81482, Miss = 4095, Miss_rate = 0.050, Pending_hits = 12, Reservation_fails = 1900
L2_cache_bank[5]: Access = 83018, Miss = 4138, Miss_rate = 0.050, Pending_hits = 15, Reservation_fails = 5883
L2_cache_bank[6]: Access = 82604, Miss = 4175, Miss_rate = 0.051, Pending_hits = 19, Reservation_fails = 0
L2_cache_bank[7]: Access = 83306, Miss = 4184, Miss_rate = 0.050, Pending_hits = 6, Reservation_fails = 0
L2_cache_bank[8]: Access = 122418, Miss = 4108, Miss_rate = 0.034, Pending_hits = 20, Reservation_fails = 2769
L2_cache_bank[9]: Access = 83453, Miss = 3976, Miss_rate = 0.048, Pending_hits = 16, Reservation_fails = 5895
L2_cache_bank[10]: Access = 82387, Miss = 4089, Miss_rate = 0.050, Pending_hits = 21, Reservation_fails = 0
L2_cache_bank[11]: Access = 83569, Miss = 4272, Miss_rate = 0.051, Pending_hits = 25, Reservation_fails = 0
L2_total_cache_accesses = 1031759
L2_total_cache_misses = 49663
L2_total_cache_miss_rate = 0.0481
L2_total_cache_pending_hits = 229
L2_total_cache_reservation_fails = 25546
L2_total_cache_breakdown:
	L2_cache_stats_breakdown[GLOBAL_ACC_R][HIT] = 575877
	L2_cache_stats_breakdown[GLOBAL_ACC_R][HIT_RESERVED] = 27
	L2_cache_stats_breakdown[GLOBAL_ACC_R][MISS] = 42659
	L2_cache_stats_breakdown[GLOBAL_ACC_R][RESERVATION_FAIL] = 25143
	L2_cache_stats_breakdown[CONST_ACC_R][HIT] = 11
	L2_cache_stats_breakdown[CONST_ACC_R][HIT_RESERVED] = 3
	L2_cache_stats_breakdown[CONST_ACC_R][MISS] = 1
	L2_cache_stats_breakdown[CONST_ACC_R][RESERVATION_FAIL] = 132
	L2_cache_stats_breakdown[GLOBAL_ACC_W][HIT] = 405929
	L2_cache_stats_breakdown[GLOBAL_ACC_W][HIT_RESERVED] = 193
	L2_cache_stats_breakdown[GLOBAL_ACC_W][MISS] = 6999
	L2_cache_stats_breakdown[GLOBAL_ACC_W][RESERVATION_FAIL] = 4
	L2_cache_stats_breakdown[INST_ACC_R][HIT] = 50
	L2_cache_stats_breakdown[INST_ACC_R][HIT_RESERVED] = 6
	L2_cache_stats_breakdown[INST_ACC_R][MISS] = 4
	L2_cache_stats_breakdown[INST_ACC_R][RESERVATION_FAIL] = 267
L2_cache_data_port_util = 0.294
L2_cache_fill_port_util = 0.021

icnt_total_pkts_mem_to_simt=3506281
icnt_total_pkts_simt_to_mem=1445491
LD_mem_lat_dist  0 0 0 0 0 0 0 0 0 0 0 0 0 0 0 0 0 0 0 0 0 0 0 0 0 0 0
ST_mem_lat_dist  0 0 0 0 0 0 0 0 0 0 0 0 0 0 0 0 0 0 0 0 0 0 0 0 0 0 0
----------------------------Interconnect-DETAILS--------------------------------
Class 0:
Packet latency average = 9.60728
	minimum = 6
	maximum = 50
Network latency average = 9.22356
	minimum = 6
	maximum = 43
Slowest packet = 2062204
Flit latency average = 7.93035
	minimum = 6
	maximum = 39
Slowest flit = 4950497
Fragmentation average = 0
	minimum = 0
	maximum = 0
Injected packet rate average = 0.0290073
	minimum = 0.0173325 (at node 1)
	maximum = 0.046416 (at node 13)
Accepted packet rate average = 0.0290073
	minimum = 0.0173325 (at node 1)
	maximum = 0.046416 (at node 13)
Injected flit rate average = 0.0810811
	minimum = 0.0179201 (at node 1)
	maximum = 0.166863 (at node 25)
Accepted flit rate average= 0.0810811
	minimum = 0.0326087 (at node 23)
	maximum = 0.203878 (at node 13)
Injected packet length average = 2.7952
Accepted packet length average = 2.7952
Total in-flight flits = 0 (0 measured)
====== Overall Traffic Statistics ======
====== Traffic class 0 ======
Packet latency average = 35.5006 (8 samples)
	minimum = 6 (8 samples)
	maximum = 561.25 (8 samples)
Network latency average = 22.8723 (8 samples)
	minimum = 6 (8 samples)
	maximum = 547.375 (8 samples)
Flit latency average = 16.9182 (8 samples)
	minimum = 6 (8 samples)
	maximum = 545.875 (8 samples)
Fragmentation average = 0.0346669 (8 samples)
	minimum = 0 (8 samples)
	maximum = 232.625 (8 samples)
Injected packet rate average = 0.053229 (8 samples)
	minimum = 0.0421762 (8 samples)
	maximum = 0.0999258 (8 samples)
Accepted packet rate average = 0.053229 (8 samples)
	minimum = 0.0421762 (8 samples)
	maximum = 0.0999258 (8 samples)
Injected flit rate average = 0.130596 (8 samples)
	minimum = 0.056842 (8 samples)
	maximum = 0.256304 (8 samples)
Accepted flit rate average = 0.130596 (8 samples)
	minimum = 0.0716404 (8 samples)
	maximum = 0.230798 (8 samples)
Injected packet size average = 2.45347 (8 samples)
Accepted packet size average = 2.45347 (8 samples)
Hops average = 1 (8 samples)
----------------------------END-of-Interconnect-DETAILS-------------------------


gpgpu_simulation_time = 0 days, 0 hrs, 6 min, 30 sec (390 sec)
gpgpu_simulation_rate = 40714 (inst/sec)
gpgpu_simulation_rate = 1988 (cycle/sec)
GPGPU-Sim: synchronize waiting for inactive GPU simulation
GPGPU-Sim API: Stream Manager State
GPGPU-Sim: detected inactive GPU simulation thread
Kernel Executed 8 times
Processing time: 389288.343750 (ms)
Result stored in result.txt
