

        *** GPGPU-Sim Simulator Version 3.2.2  [build 0] ***


GPGPU-Sim PTX: simulation mode 0 (can change with PTX_SIM_MODE_FUNC environment variable:
               1=functional simulation only, 0=detailed performance simulator)
GPGPU-Sim: Configuration options:

-network_mode                           1 # Interconnection network mode
-inter_config_file   config_fermi_islip.icnt # Interconnection network config file
-gpgpu_ptx_use_cuobjdump                    1 # Use cuobjdump to extract ptx and sass from binaries
-gpgpu_experimental_lib_support                    0 # Try to extract code from cuda libraries [Broken because of unknown cudaGetExportTable]
-gpgpu_ptx_convert_to_ptxplus                    0 # Convert SASS (native ISA) to ptxplus and run ptxplus
-gpgpu_ptx_force_max_capability                   20 # Force maximum compute capability
-gpgpu_ptx_inst_debug_to_file                    0 # Dump executed instructions' debug information to file
-gpgpu_ptx_inst_debug_file       inst_debug.txt # Executed instructions' debug output file
-gpgpu_ptx_inst_debug_thread_uid                    1 # Thread UID for executed instructions' debug output
-gpgpu_simd_model                       1 # 1 = post-dominator
-gpgpu_shader_core_pipeline              1536:32 # shader core pipeline config, i.e., {<nthread>:<warpsize>}
-gpgpu_tex_cache:l1  4:128:24,L:R:m:N:L,F:128:4,128:2 # per-shader L1 texture cache  (READ-ONLY) config  {<nsets>:<bsize>:<assoc>,<rep>:<wr>:<alloc>:<wr_alloc>,<mshr>:<N>:<merge>,<mq>:<rf>}
-gpgpu_const_cache:l1 64:64:2,L:R:f:N:L,A:2:32,4 # per-shader L1 constant memory cache  (READ-ONLY) config  {<nsets>:<bsize>:<assoc>,<rep>:<wr>:<alloc>:<wr_alloc>,<mshr>:<N>:<merge>,<mq>} 
-gpgpu_cache:il1     4:128:4,L:R:f:N:L,A:2:32,4 # shader L1 instruction cache config  {<nsets>:<bsize>:<assoc>,<rep>:<wr>:<alloc>:<wr_alloc>,<mshr>:<N>:<merge>,<mq>} 
-gpgpu_cache:dl1     64:128:2,L:L:m:N:H,A:32:8,8 # per-shader L1 data cache config  {<nsets>:<bsize>:<assoc>,<rep>:<wr>:<alloc>:<wr_alloc>,<mshr>:<N>:<merge>,<mq> | none}
-gpgpu_cache:dl1PrefL1                 none # per-shader L1 data cache config  {<nsets>:<bsize>:<assoc>,<rep>:<wr>:<alloc>:<wr_alloc>,<mshr>:<N>:<merge>,<mq> | none}
-gpgpu_cache:dl1PreShared                 none # per-shader L1 data cache config  {<nsets>:<bsize>:<assoc>,<rep>:<wr>:<alloc>:<wr_alloc>,<mshr>:<N>:<merge>,<mq> | none}
-gmem_skip_L1D                          0 # global memory access skip L1D cache (implements -Xptxas -dlcm=cg, default=no skip)
-gpgpu_perfect_mem                      0 # enable perfect memory mode (no cache miss)
-n_regfile_gating_group                    4 # group of lanes that should be read/written together)
-gpgpu_clock_gated_reg_file                    0 # enable clock gated reg file for power calculations
-gpgpu_clock_gated_lanes                    0 # enable clock gated lanes for power calculations
-gpgpu_shader_registers                32768 # Number of registers per shader core. Limits number of concurrent CTAs. (default 8192)
-gpgpu_shader_cta                       8 # Maximum number of concurrent CTAs in shader (default 8)
-gpgpu_num_cta_barriers                   16 # Maximum number of named barriers per CTA (default 16)
-gpgpu_n_clusters                      15 # number of processing clusters
-gpgpu_n_cores_per_cluster                    1 # number of simd cores per cluster
-gpgpu_n_cluster_ejection_buffer_size                    8 # number of packets in ejection buffer
-gpgpu_n_ldst_response_buffer_size                    2 # number of response packets in ld/st unit ejection buffer
-gpgpu_shmem_size                   16384 # Size of shared memory per shader core (default 16kB)
-gpgpu_shmem_size                   49152 # Size of shared memory per shader core (default 16kB)
-gpgpu_shmem_size_PrefL1                16384 # Size of shared memory per shader core (default 16kB)
-gpgpu_shmem_size_PrefShared                16384 # Size of shared memory per shader core (default 16kB)
-gpgpu_shmem_num_banks                   32 # Number of banks in the shared memory in each shader core (default 16)
-gpgpu_shmem_limited_broadcast                    0 # Limit shared memory to do one broadcast per cycle (default on)
-gpgpu_shmem_warp_parts                    1 # Number of portions a warp is divided into for shared memory bank conflict check 
-gpgpu_warpdistro_shader                   -1 # Specify which shader core to collect the warp size distribution from
-gpgpu_warp_issue_shader                    0 # Specify which shader core to collect the warp issue distribution from
-gpgpu_local_mem_map                    1 # Mapping from local memory space address to simulated GPU physical address space (default = enabled)
-gpgpu_num_reg_banks                   16 # Number of register banks (default = 8)
-gpgpu_reg_bank_use_warp_id                    0 # Use warp ID in mapping registers to banks (default = off)
-gpgpu_operand_collector_num_units_sp                    6 # number of collector units (default = 4)
-gpgpu_operand_collector_num_units_sfu                    8 # number of collector units (default = 4)
-gpgpu_operand_collector_num_units_mem                    2 # number of collector units (default = 2)
-gpgpu_operand_collector_num_units_gen                    0 # number of collector units (default = 0)
-gpgpu_operand_collector_num_in_ports_sp                    2 # number of collector unit in ports (default = 1)
-gpgpu_operand_collector_num_in_ports_sfu                    1 # number of collector unit in ports (default = 1)
-gpgpu_operand_collector_num_in_ports_mem                    1 # number of collector unit in ports (default = 1)
-gpgpu_operand_collector_num_in_ports_gen                    0 # number of collector unit in ports (default = 0)
-gpgpu_operand_collector_num_out_ports_sp                    2 # number of collector unit in ports (default = 1)
-gpgpu_operand_collector_num_out_ports_sfu                    1 # number of collector unit in ports (default = 1)
-gpgpu_operand_collector_num_out_ports_mem                    1 # number of collector unit in ports (default = 1)
-gpgpu_operand_collector_num_out_ports_gen                    0 # number of collector unit in ports (default = 0)
-gpgpu_coalesce_arch                   13 # Coalescing arch (default = 13, anything else is off for now)
-gpgpu_num_sched_per_core                    2 # Number of warp schedulers per core
-gpgpu_max_insn_issue_per_warp                    1 # Max number of instructions that can be issued per warp in one cycle by scheduler
-gpgpu_simt_core_sim_order                    1 # Select the simulation order of cores in a cluster (0=Fix, 1=Round-Robin)
-gpgpu_pipeline_widths        2,1,1,2,1,1,2 # Pipeline widths ID_OC_SP,ID_OC_SFU,ID_OC_MEM,OC_EX_SP,OC_EX_SFU,OC_EX_MEM,EX_WB
-gpgpu_num_sp_units                     2 # Number of SP units (default=1)
-gpgpu_num_sfu_units                    1 # Number of SF units (default=1)
-gpgpu_num_mem_units                    1 # Number if ldst units (default=1) WARNING: not hooked up to anything
-gpgpu_scheduler                      gto # Scheduler configuration: < lrr | gto | two_level_active > If two_level_active:<num_active_warps>:<inner_prioritization>:<outer_prioritization>For complete list of prioritization values see shader.h enum scheduler_prioritization_typeDefault: gto
-gpgpu_dram_scheduler                    1 # 0 = fifo, 1 = FR-FCFS (defaul)
-gpgpu_dram_partition_queues              8:8:8:8 # i2$:$2d:d2$:$2i
-l2_ideal                               0 # Use a ideal L2 cache that always hit
-gpgpu_cache:dl2     64:128:8,L:B:m:W:L,A:32:4,4:0,32 # unified banked L2 data cache config  {<nsets>:<bsize>:<assoc>,<rep>:<wr>:<alloc>:<wr_alloc>,<mshr>:<N>:<merge>,<mq>}
-gpgpu_cache:dl2_texture_only                    0 # L2 cache used for texture only
-gpgpu_n_mem                            6 # number of memory modules (e.g. memory controllers) in gpu
-gpgpu_n_sub_partition_per_mchannel                    2 # number of memory subpartition in each memory module
-gpgpu_n_mem_per_ctrlr                    2 # number of memory chips per memory controller
-gpgpu_memlatency_stat                   14 # track and display latency statistics 0x2 enables MC, 0x4 enables queue logs
-gpgpu_frfcfs_dram_sched_queue_size                   16 # 0 = unlimited (default); # entries per chip
-gpgpu_dram_return_queue_size                  116 # 0 = unlimited (default); # entries per chip
-gpgpu_dram_buswidth                    4 # default = 4 bytes (8 bytes per cycle at DDR)
-gpgpu_dram_burst_length                    8 # Burst length of each DRAM request (default = 4 data bus cycle)
-dram_data_command_freq_ratio                    4 # Frequency ratio between DRAM data bus and command bus (default = 2 times, i.e. DDR)
-gpgpu_dram_timing_opt nbk=16:CCD=2:RRD=6:RCD=12:RAS=28:RP=12:RC=40: CL=12:WL=4:CDLR=5:WR=12:nbkgrp=4:CCDL=3:RTPL=2 # DRAM timing parameters = {nbk:tCCD:tRRD:tRCD:tRAS:tRP:tRC:CL:WL:tCDLR:tWR:nbkgrp:tCCDL:tRTPL}
-rop_latency                          120 # ROP queue latency (default 85)
-dram_latency                         100 # DRAM latency (default 30)
-gpgpu_mem_addr_mapping dramid@8;00000000.00000000.00000000.00000000.0000RRRR.RRRRRRRR.BBBCCCCB.CCSSSSSS # mapping memory address to dram model {dramid@<start bit>;<memory address map>}
-gpgpu_mem_addr_test                    0 # run sweep test to check address mapping for aliased address
-gpgpu_mem_address_mask                    1 # 0 = old addressing mask, 1 = new addressing mask, 2 = new add. mask + flipped bank sel and chip sel bits
-gpuwattch_xml_file  gpuwattch_gtx480.xml # GPUWattch XML file
-power_simulation_enabled                    1 # Turn on power simulator (1=On, 0=Off)
-power_per_cycle_dump                    0 # Dump detailed power output each cycle
-power_trace_enabled                    0 # produce a file for the power trace (1=On, 0=Off)
-power_trace_zlevel                     6 # Compression level of the power trace output log (0=no comp, 9=highest)
-steady_power_levels_enabled                    0 # produce a file for the steady power levels (1=On, 0=Off)
-steady_state_definition                  8:4 # allowed deviation:number of samples
-gpgpu_max_cycle                        0 # terminates gpu simulation early (0 = no limit)
-gpgpu_max_insn                         0 # terminates gpu simulation early (0 = no limit)
-gpgpu_max_cta                          0 # terminates gpu simulation early (0 = no limit)
-gpgpu_runtime_stat                   500 # display runtime statistics such as dram utilization {<freq>:<flag>}
-liveness_message_freq                    1 # Minimum number of seconds between simulation liveness messages (0 = always print)
-gpgpu_flush_l1_cache                    0 # Flush L1 cache at the end of each kernel call
-gpgpu_flush_l2_cache                    0 # Flush L2 cache at the end of each kernel call
-gpgpu_deadlock_detect                    1 # Stop the simulation at deadlock (1=on (default), 0=off)
-gpgpu_ptx_instruction_classification                    0 # if enabled will classify ptx instruction types per kernel (Max 255 kernels now)
-gpgpu_ptx_sim_mode                     0 # Select between Performance (default) or Functional simulation (1)
-gpgpu_clock_domains 700.0:700.0:700.0:924.0 # Clock Domain Frequencies in MhZ {<Core Clock>:<ICNT Clock>:<L2 Clock>:<DRAM Clock>}
-gpgpu_max_concurrent_kernel                    8 # maximum kernels that can run concurrently on GPU
-gpgpu_cflog_interval                    0 # Interval between each snapshot in control flow logger
-visualizer_enabled                     0 # Turn on visualizer output (1=On, 0=Off)
-visualizer_outputfile                 NULL # Specifies the output log file for visualizer
-visualizer_zlevel                      6 # Compression level of the visualizer output log (0=no comp, 9=highest)
-trace_enabled                          0 # Turn on traces
-trace_components                    none # comma seperated list of traces to enable. Complete list found in trace_streams.tup. Default none
-trace_sampling_core                    0 # The core which is printed using CORE_DPRINTF. Default 0
-trace_sampling_memory_partition                   -1 # The memory partition which is printed using MEMPART_DPRINTF. Default -1 (i.e. all)
-enable_ptx_file_line_stats                    1 # Turn on PTX source line statistic profiling. (1 = On)
-ptx_line_stats_filename gpgpu_inst_stats.txt # Output file for PTX source line statistics.
-save_embedded_ptx                      0 # saves ptx files embedded in binary as <n>.ptx
-keep                                   0 # keep intermediate files created by GPGPU-Sim when interfacing with external programs
-gpgpu_ptx_save_converted_ptxplus                    0 # Saved converted ptxplus to a file
-ptx_opcode_latency_int         4,13,4,5,145 # Opcode latencies for integers <ADD,MAX,MUL,MAD,DIV>Default 1,1,19,25,145
-ptx_opcode_latency_fp          4,13,4,5,39 # Opcode latencies for single precision floating points <ADD,MAX,MUL,MAD,DIV>Default 1,1,1,1,30
-ptx_opcode_latency_dp         8,19,8,8,330 # Opcode latencies for double precision floating points <ADD,MAX,MUL,MAD,DIV>Default 8,8,8,8,335
-ptx_opcode_initiation_int            1,2,2,1,8 # Opcode initiation intervals for integers <ADD,MAX,MUL,MAD,DIV>Default 1,1,4,4,32
-ptx_opcode_initiation_fp            1,2,1,1,4 # Opcode initiation intervals for single precision floating points <ADD,MAX,MUL,MAD,DIV>Default 1,1,1,1,5
-ptx_opcode_initiation_dp         8,16,8,8,130 # Opcode initiation intervals for double precision floating points <ADD,MAX,MUL,MAD,DIV>Default 8,8,8,8,130
DRAM Timing Options:
nbk                                    16 # number of banks
CCD                                     2 # column to column delay
RRD                                     6 # minimal delay between activation of rows in different banks
RCD                                    12 # row to column delay
RAS                                    28 # time needed to activate row
RP                                     12 # time needed to precharge (deactivate) row
RC                                     40 # row cycle time
CDLR                                    5 # switching from write to read (changes tWTR)
WR                                     12 # last data-in to row precharge
CL                                     12 # CAS latency
WL                                      4 # Write latency
nbkgrp                                  4 # number of bank groups
CCDL                                    3 # column to column delay between accesses to different bank groups
RTPL                                    2 # read to precharge delay between accesses to different bank groups
Total number of memory sub partition = 12
addr_dec_mask[CHIP]  = 0000000000000000 	high:64 low:0
addr_dec_mask[BK]    = 000000000000e100 	high:16 low:8
addr_dec_mask[ROW]   = 000000000fff0000 	high:28 low:16
addr_dec_mask[COL]   = 0000000000001eff 	high:13 low:0
addr_dec_mask[BURST] = 000000000000003f 	high:6 low:0
sub_partition_id_mask = 0000000000000100
GPGPU-Sim uArch: clock freqs: 700000000.000000:700000000.000000:700000000.000000:924000000.000000
GPGPU-Sim uArch: clock periods: 0.00000000142857142857:0.00000000142857142857:0.00000000142857142857:0.00000000108225108225
*** Initializing Memory Statistics ***
GPGPU-Sim uArch: interconnect node map (shaderID+MemID to icntID)
GPGPU-Sim uArch: Memory nodes ID start from index: 15
GPGPU-Sim uArch:    0   1   2   3   4
GPGPU-Sim uArch:    5   6   7   8   9
GPGPU-Sim uArch:   10  11  12  13  14
GPGPU-Sim uArch:   15  16  17  18  19
GPGPU-Sim uArch:   20  21  22  23  24
GPGPU-Sim uArch:   25  26
GPGPU-Sim uArch: interconnect node reverse map (icntID to shaderID+MemID)
GPGPU-Sim uArch: Memory nodes start from ID: 15
GPGPU-Sim uArch:    0   1   2   3   4
GPGPU-Sim uArch:    5   6   7   8   9
GPGPU-Sim uArch:   10  11  12  13  14
GPGPU-Sim uArch:   15  16  17  18  19
GPGPU-Sim uArch:   20  21  22  23  24
GPGPU-Sim uArch:   25  26
20268b35c91b7ed3425c558353ee2ace  /home/scratch/adwait/applications/benchmarks/CUDA/TRA/gpgpu_ptx_sim__TRA
GPGPU-Sim uArch: performance model initialization complete.
GPGPU-Sim PTX: __cudaRegisterFatBinary, fat_cubin_handle = 1, filename=transpose.cu
self exe links to: /home/scratch/adwait/applications/benchmarks/CUDA/TRA/gpgpu_ptx_sim__TRA
Running md5sum using "md5sum /home/scratch/adwait/applications/benchmarks/CUDA/TRA/gpgpu_ptx_sim__TRA "
Running cuobjdump using "$CUDA_INSTALL_PATH/bin/cuobjdump -ptx -elf -sass /home/scratch/adwait/applications/benchmarks/CUDA/TRA/gpgpu_ptx_sim__TRA > _cuobjdump_complete_output_wGEEX9"
Parsing file _cuobjdump_complete_output_wGEEX9
######### cuobjdump parser ########
## Adding new section ELF
Adding arch: sm_20
Adding identifier: transpose.cu
## Adding new section PTX
Adding ptx filename: _cuobjdump_1.ptx
Adding arch: sm_20
Adding identifier: transpose.cu
Done parsing!!!
GPGPU-Sim PTX: __cudaRegisterFunction _Z15transpose_naivePfS_ii : hostFun 0x0x4048d7, fat_cubin_handle = 1
GPGPU-Sim PTX: allocating shared region for "__cuda___cuda_local_var_42723_32_non_const_block24" from 0x0 to 0x440 (shared memory space)
GPGPU-Sim PTX: instruction assembly for function '_Z9transposePfS_ii'...   done.
GPGPU-Sim PTX: finding reconvergence points for '_Z9transposePfS_ii'...
GPGPU-Sim PTX: Finding dominators for '_Z9transposePfS_ii'...
GPGPU-Sim PTX: Finding immediate dominators for '_Z9transposePfS_ii'...
GPGPU-Sim PTX: Finding postdominators for '_Z9transposePfS_ii'...
GPGPU-Sim PTX: Finding immediate postdominators for '_Z9transposePfS_ii'...
GPGPU-Sim PTX: pre-decoding instructions for '_Z9transposePfS_ii'...
GPGPU-Sim PTX: reconvergence points for _Z9transposePfS_ii...
GPGPU-Sim PTX:  1 (potential) branch divergence @  PC=0x088 (_1.ptx:81) @%p1 bra $Lt_0_2306;
GPGPU-Sim PTX:    immediate post dominator      @  PC=0x108 (_1.ptx:99) mov.u64 %rd1, __cuda___cuda_local_var_42723_32_non_const_block24;
GPGPU-Sim PTX:  2 (potential) branch divergence @  PC=0x160 (_1.ptx:111) @%p2 bra $Lt_0_2818;
GPGPU-Sim PTX:    immediate post dominator      @  PC=0x1d8 (_1.ptx:129) exit;
GPGPU-Sim PTX: ... end of reconvergence points for _Z9transposePfS_ii
GPGPU-Sim PTX: ... done pre-decoding instructions for '_Z9transposePfS_ii'.
GPGPU-Sim PTX: instruction assembly for function '_Z15transpose_naivePfS_ii'...   done.
GPGPU-Sim PTX: finding reconvergence points for '_Z15transpose_naivePfS_ii'...
GPGPU-Sim PTX: Finding dominators for '_Z15transpose_naivePfS_ii'...
GPGPU-Sim PTX: Finding immediate dominators for '_Z15transpose_naivePfS_ii'...
GPGPU-Sim PTX: Finding postdominators for '_Z15transpose_naivePfS_ii'...
GPGPU-Sim PTX: Finding immediate postdominators for '_Z15transpose_naivePfS_ii'...
GPGPU-Sim PTX: pre-decoding instructions for '_Z15transpose_naivePfS_ii'...
GPGPU-Sim PTX: reconvergence points for _Z15transpose_naivePfS_ii...
GPGPU-Sim PTX:  1 (potential) branch divergence @  PC=0x278 (_1.ptx:164) @%p1 bra $Lt_1_1282;
GPGPU-Sim PTX:    immediate post dominator      @  PC=0x2f0 (_1.ptx:182) exit;
GPGPU-Sim PTX: ... end of reconvergence points for _Z15transpose_naivePfS_ii
GPGPU-Sim PTX: ... done pre-decoding instructions for '_Z15transpose_naivePfS_ii'.
GPGPU-Sim PTX: finished parsing EMBEDDED .ptx file _1.ptx
Adding _cuobjdump_1.ptx with cubin handle 1
GPGPU-Sim PTX: extracting embedded .ptx to temporary file "_ptx_TzqbOS"
Running: cat _ptx_TzqbOS | sed 's/.version 1.5/.version 1.4/' | sed 's/, texmode_independent//' | sed 's/\(\.extern \.const\[1\] .b8 \w\+\)\[\]/\1\[1\]/' | sed 's/const\[.\]/const\[0\]/g' > _ptx2_fkIYEB
GPGPU-Sim PTX: generating ptxinfo using "$CUDA_INSTALL_PATH/bin/ptxas --gpu-name=sm_20 -v _ptx2_fkIYEB --output-file  /dev/null 2> _ptx_TzqbOSinfo"
GPGPU-Sim PTX: Kernel '_Z15transpose_naivePfS_ii' : regs=8, lmem=0, smem=0, cmem=56
GPGPU-Sim PTX: Kernel '_Z9transposePfS_ii' : regs=9, lmem=0, smem=1088, cmem=56
GPGPU-Sim PTX: removing ptxinfo using "rm -f _ptx_TzqbOS _ptx2_fkIYEB _ptx_TzqbOSinfo"
GPGPU-Sim PTX: loading globals with explicit initializers... 
GPGPU-Sim PTX: finished loading globals (0 bytes total).
GPGPU-Sim PTX: loading constants with explicit initializers...  done.
GPGPU-Sim PTX: __cudaRegisterFunction _Z9transposePfS_ii : hostFun 0x0x4047e7, fat_cubin_handle = 1

GPGPU-Sim PTX: cudaLaunch for 0x0x4048d7 (mode=performance simulation) on stream 0
GPGPU-Sim PTX: pushing kernel '_Z15transpose_naivePfS_ii' to stream 0, gridDim= (16,256,1) blockDim = (16,16,1) 
kernel '_Z15transpose_naivePfS_ii' transfer to GPU hardware scheduler
GPGPU-Sim uArch: Shader 1 bind to kernel 1 '_Z15transpose_naivePfS_ii'
GPGPU-Sim uArch: CTA/core = 6, limited by: threads
GPGPU-Sim uArch: core:  1, cta: 0 initialized @(1,0)
GPGPU-Sim uArch: Shader 2 bind to kernel 1 '_Z15transpose_naivePfS_ii'
GPGPU-Sim uArch: core:  2, cta: 0 initialized @(1,0)
GPGPU-Sim uArch: Shader 3 bind to kernel 1 '_Z15transpose_naivePfS_ii'
GPGPU-Sim uArch: core:  3, cta: 0 initialized @(1,0)
GPGPU-Sim uArch: Shader 4 bind to kernel 1 '_Z15transpose_naivePfS_ii'
GPGPU-Sim uArch: core:  4, cta: 0 initialized @(1,0)
GPGPU-Sim uArch: Shader 5 bind to kernel 1 '_Z15transpose_naivePfS_ii'
GPGPU-Sim uArch: core:  5, cta: 0 initialized @(1,0)
GPGPU-Sim uArch: Shader 6 bind to kernel 1 '_Z15transpose_naivePfS_ii'
GPGPU-Sim uArch: core:  6, cta: 0 initialized @(1,0)
GPGPU-Sim uArch: Shader 7 bind to kernel 1 '_Z15transpose_naivePfS_ii'
GPGPU-Sim uArch: core:  7, cta: 0 initialized @(1,0)
GPGPU-Sim uArch: Shader 8 bind to kernel 1 '_Z15transpose_naivePfS_ii'
GPGPU-Sim uArch: core:  8, cta: 0 initialized @(1,0)
GPGPU-Sim uArch: Shader 9 bind to kernel 1 '_Z15transpose_naivePfS_ii'
GPGPU-Sim uArch: core:  9, cta: 0 initialized @(1,0)
GPGPU-Sim uArch: Shader 10 bind to kernel 1 '_Z15transpose_naivePfS_ii'
GPGPU-Sim uArch: core: 10, cta: 0 initialized @(1,0)
GPGPU-Sim uArch: Shader 11 bind to kernel 1 '_Z15transpose_naivePfS_ii'
GPGPU-Sim uArch: core: 11, cta: 0 initialized @(1,0)
GPGPU-Sim uArch: Shader 12 bind to kernel 1 '_Z15transpose_naivePfS_ii'
GPGPU-Sim uArch: core: 12, cta: 0 initialized @(1,0)
GPGPU-Sim uArch: Shader 13 bind to kernel 1 '_Z15transpose_naivePfS_ii'
GPGPU-Sim uArch: core: 13, cta: 0 initialized @(1,0)
GPGPU-Sim uArch: Shader 14 bind to kernel 1 '_Z15transpose_naivePfS_ii'
GPGPU-Sim uArch: core: 14, cta: 0 initialized @(1,0)
GPGPU-Sim uArch: Shader 0 bind to kernel 1 '_Z15transpose_naivePfS_ii'
GPGPU-Sim uArch: core:  0, cta: 0 initialized @(1,0)
GPGPU-Sim uArch: core:  1, cta: 1 initialized @(2,0)
GPGPU-Sim uArch: core:  2, cta: 1 initialized @(2,0)
GPGPU-Sim uArch: core:  3, cta: 1 initialized @(2,0)
GPGPU-Sim uArch: core:  4, cta: 1 initialized @(2,0)
GPGPU-Sim uArch: core:  5, cta: 1 initialized @(2,0)
GPGPU-Sim uArch: core:  6, cta: 1 initialized @(2,0)
GPGPU-Sim uArch: core:  7, cta: 1 initialized @(2,0)
GPGPU-Sim uArch: core:  8, cta: 1 initialized @(2,0)
GPGPU-Sim uArch: core:  9, cta: 1 initialized @(2,0)
GPGPU-Sim uArch: core: 10, cta: 1 initialized @(2,0)
GPGPU-Sim uArch: core: 11, cta: 1 initialized @(2,0)
GPGPU-Sim uArch: core: 12, cta: 1 initialized @(2,0)
GPGPU-Sim uArch: core: 13, cta: 1 initialized @(2,0)
GPGPU-Sim uArch: core: 14, cta: 1 initialized @(2,0)
GPGPU-Sim uArch: core:  0, cta: 1 initialized @(2,0)
GPGPU-Sim uArch: core:  1, cta: 2 initialized @(3,0)
GPGPU-Sim uArch: core:  2, cta: 2 initialized @(3,0)
GPGPU-Sim uArch: core:  3, cta: 2 initialized @(3,0)
GPGPU-Sim uArch: core:  4, cta: 2 initialized @(3,0)
GPGPU-Sim uArch: core:  5, cta: 2 initialized @(3,0)
GPGPU-Sim uArch: core:  6, cta: 2 initialized @(3,0)
GPGPU-Sim uArch: core:  7, cta: 2 initialized @(3,0)
GPGPU-Sim uArch: core:  8, cta: 2 initialized @(3,0)
GPGPU-Sim uArch: core:  9, cta: 2 initialized @(3,0)
GPGPU-Sim uArch: core: 10, cta: 2 initialized @(3,0)
GPGPU-Sim uArch: core: 11, cta: 2 initialized @(3,0)
GPGPU-Sim uArch: core: 12, cta: 2 initialized @(3,0)
GPGPU-Sim uArch: core: 13, cta: 2 initialized @(3,0)
GPGPU-Sim uArch: core: 14, cta: 2 initialized @(3,0)
GPGPU-Sim uArch: core:  0, cta: 2 initialized @(3,0)
GPGPU-Sim uArch: core:  1, cta: 3 initialized @(4,0)
GPGPU-Sim uArch: core:  2, cta: 3 initialized @(4,0)
GPGPU-Sim uArch: core:  3, cta: 3 initialized @(4,0)
GPGPU-Sim uArch: core:  4, cta: 3 initialized @(4,0)
GPGPU-Sim uArch: core:  5, cta: 3 initialized @(4,0)
GPGPU-Sim uArch: core:  6, cta: 3 initialized @(4,0)
GPGPU-Sim uArch: core:  7, cta: 3 initialized @(4,0)
GPGPU-Sim uArch: core:  8, cta: 3 initialized @(4,0)
GPGPU-Sim uArch: core:  9, cta: 3 initialized @(4,0)
GPGPU-Sim uArch: core: 10, cta: 3 initialized @(4,0)
GPGPU-Sim uArch: core: 11, cta: 3 initialized @(4,0)
GPGPU-Sim uArch: core: 12, cta: 3 initialized @(4,0)
GPGPU-Sim uArch: core: 13, cta: 3 initialized @(4,0)
GPGPU-Sim uArch: core: 14, cta: 3 initialized @(4,0)
GPGPU-Sim uArch: core:  0, cta: 3 initialized @(4,0)
GPGPU-Sim uArch: core:  1, cta: 4 initialized @(5,0)
GPGPU-Sim uArch: core:  2, cta: 4 initialized @(5,0)
GPGPU-Sim uArch: core:  3, cta: 4 initialized @(5,0)
GPGPU-Sim uArch: core:  4, cta: 4 initialized @(5,0)
GPGPU-Sim uArch: core:  5, cta: 4 initialized @(5,0)
GPGPU-Sim uArch: core:  6, cta: 4 initialized @(5,0)
GPGPU-Sim uArch: core:  7, cta: 4 initialized @(5,0)
GPGPU-Sim uArch: core:  8, cta: 4 initialized @(5,0)
GPGPU-Sim uArch: core:  9, cta: 4 initialized @(5,0)
GPGPU-Sim uArch: core: 10, cta: 4 initialized @(5,0)
GPGPU-Sim uArch: core: 11, cta: 4 initialized @(5,0)
GPGPU-Sim uArch: core: 12, cta: 4 initialized @(5,0)
GPGPU-Sim uArch: core: 13, cta: 4 initialized @(5,0)
GPGPU-Sim uArch: core: 14, cta: 4 initialized @(5,0)
GPGPU-Sim uArch: core:  0, cta: 4 initialized @(5,0)
GPGPU-Sim uArch: core:  1, cta: 5 initialized @(6,0)
GPGPU-Sim uArch: core:  2, cta: 5 initialized @(6,0)
GPGPU-Sim uArch: core:  3, cta: 5 initialized @(6,0)
GPGPU-Sim uArch: core:  4, cta: 5 initialized @(6,0)
GPGPU-Sim uArch: core:  5, cta: 5 initialized @(6,0)
GPGPU-Sim uArch: core:  6, cta: 5 initialized @(6,0)
GPGPU-Sim uArch: core:  7, cta: 5 initialized @(6,0)
GPGPU-Sim uArch: core:  8, cta: 5 initialized @(6,0)
GPGPU-Sim uArch: core:  9, cta: 5 initialized @(6,0)
GPGPU-Sim uArch: core: 10, cta: 5 initialized @(6,0)
GPGPU-Sim uArch: core: 11, cta: 5 initialized @(6,0)
GPGPU-Sim uArch: core: 12, cta: 5 initialized @(6,0)
GPGPU-Sim uArch: core: 13, cta: 5 initialized @(6,0)
GPGPU-Sim uArch: core: 14, cta: 5 initialized @(6,0)
GPGPU-Sim uArch: core:  0, cta: 5 initialized @(6,0)
GPGPU-Sim uArch: cycles simulated: 500  inst.: 92000 (ipc=184.0) sim_rate=92000 (inst/sec) elapsed = 0:0:00:01 / Tue Apr 16 16:55:29 2019
GPGPU-Sim PTX: 100000 instructions simulated : ctaid=(0,5,0) tid=(15,9,0)
GPGPU-Sim PTX: 200000 instructions simulated : ctaid=(6,1,0) tid=(15,15,0)
GPGPU-Sim PTX: 300000 instructions simulated : ctaid=(1,1,0) tid=(15,11,0)
GPGPU-Sim PTX: 400000 instructions simulated : ctaid=(14,4,0) tid=(15,7,0)
GPGPU-Sim PTX: 500000 instructions simulated : ctaid=(7,2,0) tid=(15,7,0)
GPGPU-Sim uArch: cycles simulated: 1500  inst.: 521024 (ipc=347.3) sim_rate=260512 (inst/sec) elapsed = 0:0:00:02 / Tue Apr 16 16:55:30 2019
GPGPU-Sim PTX: 600000 instructions simulated : ctaid=(15,0,0) tid=(15,3,0)
GPGPU-Sim uArch: cycles simulated: 2000  inst.: 641792 (ipc=320.9) sim_rate=213930 (inst/sec) elapsed = 0:0:00:03 / Tue Apr 16 16:55:31 2019
GPGPU-Sim uArch: cycles simulated: 2500  inst.: 648768 (ipc=259.5) sim_rate=162192 (inst/sec) elapsed = 0:0:00:04 / Tue Apr 16 16:55:32 2019
GPGPU-Sim uArch: cycles simulated: 4000  inst.: 651648 (ipc=162.9) sim_rate=130329 (inst/sec) elapsed = 0:0:00:05 / Tue Apr 16 16:55:33 2019
GPGPU-Sim uArch: cycles simulated: 5500  inst.: 653280 (ipc=118.8) sim_rate=108880 (inst/sec) elapsed = 0:0:00:06 / Tue Apr 16 16:55:34 2019
GPGPU-Sim uArch: cycles simulated: 6500  inst.: 654720 (ipc=100.7) sim_rate=93531 (inst/sec) elapsed = 0:0:00:07 / Tue Apr 16 16:55:35 2019
GPGPU-Sim uArch: cycles simulated: 8000  inst.: 656416 (ipc=82.1) sim_rate=82052 (inst/sec) elapsed = 0:0:00:08 / Tue Apr 16 16:55:36 2019
GPGPU-Sim uArch: cycles simulated: 9500  inst.: 659072 (ipc=69.4) sim_rate=73230 (inst/sec) elapsed = 0:0:00:09 / Tue Apr 16 16:55:37 2019
GPGPU-Sim uArch: cycles simulated: 11000  inst.: 663136 (ipc=60.3) sim_rate=66313 (inst/sec) elapsed = 0:0:00:10 / Tue Apr 16 16:55:38 2019
GPGPU-Sim uArch: Shader 1 finished CTA #0 (12255,0), 5 CTAs running
GPGPU-Sim uArch: core:  1, cta: 0 initialized @(12256,0)
GPGPU-Sim uArch: cycles simulated: 12500  inst.: 669920 (ipc=53.6) sim_rate=60901 (inst/sec) elapsed = 0:0:00:11 / Tue Apr 16 16:55:39 2019
GPGPU-Sim PTX: 700000 instructions simulated : ctaid=(3,4,0) tid=(15,5,0)
GPGPU-Sim uArch: cycles simulated: 14000  inst.: 677696 (ipc=48.4) sim_rate=56474 (inst/sec) elapsed = 0:0:00:12 / Tue Apr 16 16:55:40 2019
GPGPU-Sim uArch: cycles simulated: 15500  inst.: 683872 (ipc=44.1) sim_rate=52605 (inst/sec) elapsed = 0:0:00:13 / Tue Apr 16 16:55:41 2019
GPGPU-Sim uArch: Shader 13 finished CTA #0 (15594,0), 5 CTAs running
GPGPU-Sim uArch: core: 13, cta: 0 initialized @(15595,0)
GPGPU-Sim uArch: Shader 9 finished CTA #0 (16461,0), 5 CTAs running
GPGPU-Sim uArch: core:  9, cta: 0 initialized @(16462,0)
GPGPU-Sim uArch: cycles simulated: 17000  inst.: 696480 (ipc=41.0) sim_rate=49748 (inst/sec) elapsed = 0:0:00:14 / Tue Apr 16 16:55:42 2019
GPGPU-Sim uArch: Shader 12 finished CTA #0 (17233,0), 5 CTAs running
GPGPU-Sim uArch: core: 12, cta: 0 initialized @(17234,0)
GPGPU-Sim uArch: Shader 5 finished CTA #0 (17444,0), 5 CTAs running
GPGPU-Sim uArch: core:  5, cta: 0 initialized @(17445,0)
GPGPU-Sim uArch: cycles simulated: 18000  inst.: 714816 (ipc=39.7) sim_rate=47654 (inst/sec) elapsed = 0:0:00:15 / Tue Apr 16 16:55:43 2019
GPGPU-Sim uArch: Shader 11 finished CTA #0 (18122,0), 5 CTAs running
GPGPU-Sim uArch: core: 11, cta: 0 initialized @(18123,0)
GPGPU-Sim uArch: Shader 8 finished CTA #0 (18304,0), 5 CTAs running
GPGPU-Sim uArch: core:  8, cta: 0 initialized @(18305,0)
GPGPU-Sim uArch: Shader 0 finished CTA #0 (18308,0), 5 CTAs running
GPGPU-Sim uArch: core:  0, cta: 0 initialized @(18309,0)
GPGPU-Sim uArch: Shader 14 finished CTA #0 (18631,0), 5 CTAs running
GPGPU-Sim uArch: core: 14, cta: 0 initialized @(18632,0)
GPGPU-Sim uArch: Shader 6 finished CTA #0 (18937,0), 5 CTAs running
GPGPU-Sim uArch: core:  6, cta: 0 initialized @(18938,0)
GPGPU-Sim uArch: Shader 2 finished CTA #0 (18941,0), 5 CTAs running
GPGPU-Sim uArch: core:  2, cta: 0 initialized @(18942,0)
GPGPU-Sim uArch: Shader 10 finished CTA #0 (18980,0), 5 CTAs running
GPGPU-Sim uArch: core: 10, cta: 0 initialized @(18981,0)
GPGPU-Sim uArch: Shader 7 finished CTA #0 (19298,0), 5 CTAs running
GPGPU-Sim uArch: core:  7, cta: 0 initialized @(19299,0)
GPGPU-Sim uArch: cycles simulated: 19500  inst.: 761056 (ipc=39.0) sim_rate=47566 (inst/sec) elapsed = 0:0:00:16 / Tue Apr 16 16:55:44 2019
GPGPU-Sim uArch: Shader 0 finished CTA #1 (19744,0), 5 CTAs running
GPGPU-Sim uArch: core:  0, cta: 1 initialized @(19745,0)
GPGPU-Sim PTX: 800000 instructions simulated : ctaid=(13,5,0) tid=(15,1,0)
GPGPU-Sim uArch: Shader 12 finished CTA #1 (20153,0), 5 CTAs running
GPGPU-Sim uArch: core: 12, cta: 1 initialized @(20154,0)
GPGPU-Sim uArch: Shader 3 finished CTA #0 (20204,0), 5 CTAs running
GPGPU-Sim uArch: core:  3, cta: 0 initialized @(20205,0)
GPGPU-Sim uArch: Shader 11 finished CTA #1 (20219,0), 5 CTAs running
GPGPU-Sim uArch: core: 11, cta: 1 initialized @(20220,0)
GPGPU-Sim uArch: Shader 11 finished CTA #2 (20460,0), 5 CTAs running
GPGPU-Sim uArch: core: 11, cta: 2 initialized @(20461,0)
GPGPU-Sim uArch: cycles simulated: 20500  inst.: 804640 (ipc=39.3) sim_rate=47331 (inst/sec) elapsed = 0:0:00:17 / Tue Apr 16 16:55:45 2019
GPGPU-Sim uArch: Shader 1 finished CTA #1 (20633,0), 5 CTAs running
GPGPU-Sim uArch: core:  1, cta: 1 initialized @(20634,0)
GPGPU-Sim uArch: Shader 6 finished CTA #1 (20950,0), 5 CTAs running
GPGPU-Sim uArch: core:  6, cta: 1 initialized @(20951,0)
GPGPU-Sim uArch: Shader 0 finished CTA #2 (21190,0), 5 CTAs running
GPGPU-Sim uArch: core:  0, cta: 2 initialized @(21191,0)
GPGPU-Sim uArch: Shader 4 finished CTA #0 (21247,0), 5 CTAs running
GPGPU-Sim uArch: core:  4, cta: 0 initialized @(21248,0)
GPGPU-Sim uArch: Shader 13 finished CTA #1 (21870,0), 5 CTAs running
GPGPU-Sim uArch: core: 13, cta: 1 initialized @(21871,0)
GPGPU-Sim uArch: cycles simulated: 22000  inst.: 842624 (ipc=38.3) sim_rate=46812 (inst/sec) elapsed = 0:0:00:18 / Tue Apr 16 16:55:46 2019
GPGPU-Sim uArch: Shader 10 finished CTA #1 (22009,0), 5 CTAs running
GPGPU-Sim uArch: core: 10, cta: 1 initialized @(22010,0)
GPGPU-Sim uArch: Shader 9 finished CTA #1 (22107,0), 5 CTAs running
GPGPU-Sim uArch: core:  9, cta: 1 initialized @(22108,0)
GPGPU-Sim uArch: Shader 14 finished CTA #1 (22265,0), 5 CTAs running
GPGPU-Sim uArch: core: 14, cta: 1 initialized @(22266,0)
GPGPU-Sim uArch: Shader 8 finished CTA #1 (22337,0), 5 CTAs running
GPGPU-Sim uArch: core:  8, cta: 1 initialized @(22338,0)
GPGPU-Sim uArch: Shader 8 finished CTA #2 (22516,0), 5 CTAs running
GPGPU-Sim uArch: core:  8, cta: 2 initialized @(22517,0)
GPGPU-Sim uArch: Shader 5 finished CTA #1 (22840,0), 5 CTAs running
GPGPU-Sim uArch: core:  5, cta: 1 initialized @(22841,0)
GPGPU-Sim PTX: 900000 instructions simulated : ctaid=(6,7,0) tid=(15,5,0)
GPGPU-Sim uArch: Shader 4 finished CTA #1 (23305,0), 5 CTAs running
GPGPU-Sim uArch: core:  4, cta: 1 initialized @(23306,0)
GPGPU-Sim uArch: Shader 3 finished CTA #1 (23353,0), 5 CTAs running
GPGPU-Sim uArch: core:  3, cta: 1 initialized @(23354,0)
GPGPU-Sim uArch: Shader 8 finished CTA #3 (23421,0), 5 CTAs running
GPGPU-Sim uArch: core:  8, cta: 3 initialized @(23422,0)
GPGPU-Sim uArch: cycles simulated: 23500  inst.: 894336 (ipc=38.1) sim_rate=47070 (inst/sec) elapsed = 0:0:00:19 / Tue Apr 16 16:55:47 2019
GPGPU-Sim uArch: Shader 7 finished CTA #1 (23583,0), 5 CTAs running
GPGPU-Sim uArch: core:  7, cta: 1 initialized @(23584,0)
GPGPU-Sim uArch: Shader 4 finished CTA #4 (23623,0), 5 CTAs running
GPGPU-Sim uArch: core:  4, cta: 4 initialized @(23624,0)
GPGPU-Sim uArch: Shader 2 finished CTA #1 (23633,0), 5 CTAs running
GPGPU-Sim uArch: core:  2, cta: 1 initialized @(23634,0)
GPGPU-Sim uArch: Shader 4 finished CTA #2 (23716,0), 5 CTAs running
GPGPU-Sim uArch: core:  4, cta: 2 initialized @(23717,0)
GPGPU-Sim uArch: Shader 0 finished CTA #3 (24221,0), 5 CTAs running
GPGPU-Sim uArch: core:  0, cta: 3 initialized @(24222,0)
GPGPU-Sim uArch: cycles simulated: 24500  inst.: 921600 (ipc=37.6) sim_rate=46080 (inst/sec) elapsed = 0:0:00:20 / Tue Apr 16 16:55:48 2019
GPGPU-Sim uArch: Shader 11 finished CTA #3 (24622,0), 5 CTAs running
GPGPU-Sim uArch: core: 11, cta: 3 initialized @(24623,0)
GPGPU-Sim uArch: Shader 2 finished CTA #2 (24805,0), 5 CTAs running
GPGPU-Sim uArch: core:  2, cta: 2 initialized @(24806,0)
GPGPU-Sim uArch: Shader 6 finished CTA #2 (25303,0), 5 CTAs running
GPGPU-Sim uArch: core:  6, cta: 2 initialized @(25304,0)
GPGPU-Sim uArch: Shader 8 finished CTA #4 (25382,0), 5 CTAs running
GPGPU-Sim uArch: core:  8, cta: 4 initialized @(25383,0)
GPGPU-Sim uArch: Shader 1 finished CTA #2 (25412,0), 5 CTAs running
GPGPU-Sim uArch: core:  1, cta: 2 initialized @(25413,0)
GPGPU-Sim uArch: Shader 6 finished CTA #3 (25442,0), 5 CTAs running
GPGPU-Sim uArch: core:  6, cta: 3 initialized @(25443,0)
GPGPU-Sim uArch: Shader 2 finished CTA #3 (25678,0), 5 CTAs running
GPGPU-Sim uArch: core:  2, cta: 3 initialized @(25679,0)
GPGPU-Sim uArch: Shader 14 finished CTA #2 (25697,0), 5 CTAs running
GPGPU-Sim uArch: core: 14, cta: 2 initialized @(25698,0)
GPGPU-Sim uArch: Shader 1 finished CTA #3 (25796,0), 5 CTAs running
GPGPU-Sim uArch: core:  1, cta: 3 initialized @(25797,0)
GPGPU-Sim uArch: cycles simulated: 26000  inst.: 968896 (ipc=37.3) sim_rate=46137 (inst/sec) elapsed = 0:0:00:21 / Tue Apr 16 16:55:49 2019
GPGPU-Sim PTX: 1000000 instructions simulated : ctaid=(0,3,0) tid=(15,15,0)
GPGPU-Sim uArch: Shader 2 finished CTA #4 (26132,0), 5 CTAs running
GPGPU-Sim uArch: core:  2, cta: 4 initialized @(26133,0)
GPGPU-Sim uArch: Shader 14 finished CTA #3 (26178,0), 5 CTAs running
GPGPU-Sim uArch: core: 14, cta: 3 initialized @(26179,0)
GPGPU-Sim uArch: Shader 1 finished CTA #4 (26577,0), 5 CTAs running
GPGPU-Sim uArch: core:  1, cta: 4 initialized @(26578,0)
GPGPU-Sim uArch: Shader 3 finished CTA #2 (26609,0), 5 CTAs running
GPGPU-Sim uArch: core:  3, cta: 2 initialized @(26610,0)
GPGPU-Sim uArch: Shader 13 finished CTA #2 (26652,0), 5 CTAs running
GPGPU-Sim uArch: core: 13, cta: 2 initialized @(26653,0)
GPGPU-Sim uArch: Shader 11 finished CTA #4 (26657,0), 5 CTAs running
GPGPU-Sim uArch: core: 11, cta: 4 initialized @(26658,0)
GPGPU-Sim uArch: Shader 3 finished CTA #3 (26693,0), 5 CTAs running
GPGPU-Sim uArch: core:  3, cta: 3 initialized @(26694,0)
GPGPU-Sim uArch: cycles simulated: 27000  inst.: 1022112 (ipc=37.9) sim_rate=46459 (inst/sec) elapsed = 0:0:00:22 / Tue Apr 16 16:55:50 2019
GPGPU-Sim uArch: Shader 4 finished CTA #3 (27141,0), 5 CTAs running
GPGPU-Sim uArch: core:  4, cta: 3 initialized @(27142,0)
GPGPU-Sim uArch: Shader 3 finished CTA #4 (27260,0), 5 CTAs running
GPGPU-Sim uArch: core:  3, cta: 4 initialized @(27261,0)
GPGPU-Sim uArch: Shader 0 finished CTA #4 (27554,0), 5 CTAs running
GPGPU-Sim uArch: core:  0, cta: 4 initialized @(27555,0)
GPGPU-Sim uArch: Shader 5 finished CTA #2 (27597,0), 5 CTAs running
GPGPU-Sim uArch: core:  5, cta: 2 initialized @(27598,0)
GPGPU-Sim uArch: Shader 10 finished CTA #2 (27643,0), 5 CTAs running
GPGPU-Sim uArch: core: 10, cta: 2 initialized @(27644,0)
GPGPU-Sim uArch: Shader 7 finished CTA #2 (27805,0), 5 CTAs running
GPGPU-Sim uArch: core:  7, cta: 2 initialized @(27806,0)
GPGPU-Sim uArch: Shader 4 finished CTA #5 (27867,0), 5 CTAs running
GPGPU-Sim uArch: core:  4, cta: 5 initialized @(27868,0)
GPGPU-Sim PTX: 1100000 instructions simulated : ctaid=(14,8,0) tid=(15,9,0)
GPGPU-Sim uArch: Shader 9 finished CTA #2 (27934,0), 5 CTAs running
GPGPU-Sim uArch: core:  9, cta: 2 initialized @(27935,0)
GPGPU-Sim uArch: Shader 13 finished CTA #3 (28017,0), 5 CTAs running
GPGPU-Sim uArch: core: 13, cta: 3 initialized @(28018,0)
GPGPU-Sim uArch: Shader 6 finished CTA #4 (28142,0), 5 CTAs running
GPGPU-Sim uArch: core:  6, cta: 4 initialized @(28143,0)
GPGPU-Sim uArch: Shader 5 finished CTA #3 (28395,0), 5 CTAs running
GPGPU-Sim uArch: core:  5, cta: 3 initialized @(28396,0)
GPGPU-Sim uArch: Shader 10 finished CTA #3 (28445,0), 5 CTAs running
GPGPU-Sim uArch: core: 10, cta: 3 initialized @(28446,0)
GPGPU-Sim uArch: Shader 9 finished CTA #3 (28475,0), 5 CTAs running
GPGPU-Sim uArch: core:  9, cta: 3 initialized @(28476,0)
GPGPU-Sim uArch: cycles simulated: 28500  inst.: 1109248 (ipc=38.9) sim_rate=48228 (inst/sec) elapsed = 0:0:00:23 / Tue Apr 16 16:55:51 2019
GPGPU-Sim uArch: Shader 3 finished CTA #5 (28730,0), 5 CTAs running
GPGPU-Sim uArch: core:  3, cta: 5 initialized @(28731,0)
GPGPU-Sim uArch: Shader 12 finished CTA #2 (29129,0), 5 CTAs running
GPGPU-Sim uArch: core: 12, cta: 2 initialized @(29130,0)
GPGPU-Sim uArch: Shader 9 finished CTA #4 (29173,0), 5 CTAs running
GPGPU-Sim uArch: core:  9, cta: 4 initialized @(29174,0)
GPGPU-Sim uArch: Shader 8 finished CTA #5 (29183,0), 5 CTAs running
GPGPU-Sim uArch: core:  8, cta: 5 initialized @(29184,0)
GPGPU-Sim uArch: Shader 5 finished CTA #4 (29352,0), 5 CTAs running
GPGPU-Sim uArch: core:  5, cta: 4 initialized @(29353,0)
GPGPU-Sim uArch: cycles simulated: 29500  inst.: 1140032 (ipc=38.6) sim_rate=47501 (inst/sec) elapsed = 0:0:00:24 / Tue Apr 16 16:55:52 2019
GPGPU-Sim uArch: Shader 14 finished CTA #4 (29710,0), 5 CTAs running
GPGPU-Sim uArch: core: 14, cta: 4 initialized @(29711,0)
GPGPU-Sim uArch: Shader 6 finished CTA #5 (30300,0), 5 CTAs running
GPGPU-Sim uArch: core:  6, cta: 5 initialized @(30301,0)
GPGPU-Sim PTX: 1200000 instructions simulated : ctaid=(0,8,0) tid=(15,15,0)
GPGPU-Sim uArch: Shader 12 finished CTA #3 (30428,0), 5 CTAs running
GPGPU-Sim uArch: core: 12, cta: 3 initialized @(30429,0)
GPGPU-Sim uArch: Shader 2 finished CTA #5 (30527,0), 5 CTAs running
GPGPU-Sim uArch: core:  2, cta: 5 initialized @(30528,0)
GPGPU-Sim uArch: Shader 7 finished CTA #3 (30800,0), 5 CTAs running
GPGPU-Sim uArch: core:  7, cta: 3 initialized @(30801,0)
GPGPU-Sim uArch: Shader 10 finished CTA #4 (30830,0), 5 CTAs running
GPGPU-Sim uArch: core: 10, cta: 4 initialized @(30831,0)
GPGPU-Sim uArch: cycles simulated: 31000  inst.: 1191808 (ipc=38.4) sim_rate=47672 (inst/sec) elapsed = 0:0:00:25 / Tue Apr 16 16:55:53 2019
GPGPU-Sim uArch: Shader 1 finished CTA #5 (31150,0), 5 CTAs running
GPGPU-Sim uArch: core:  1, cta: 5 initialized @(31151,0)
GPGPU-Sim uArch: Shader 0 finished CTA #5 (31933,0), 5 CTAs running
GPGPU-Sim uArch: core:  0, cta: 5 initialized @(31934,0)
GPGPU-Sim uArch: Shader 4 finished CTA #0 (31977,0), 5 CTAs running
GPGPU-Sim uArch: core:  4, cta: 0 initialized @(31978,0)
GPGPU-Sim uArch: cycles simulated: 32000  inst.: 1215456 (ipc=38.0) sim_rate=46748 (inst/sec) elapsed = 0:0:00:26 / Tue Apr 16 16:55:54 2019
GPGPU-Sim uArch: Shader 12 finished CTA #4 (32314,0), 5 CTAs running
GPGPU-Sim uArch: core: 12, cta: 4 initialized @(32315,0)
GPGPU-Sim uArch: Shader 14 finished CTA #5 (32938,0), 5 CTAs running
GPGPU-Sim uArch: core: 14, cta: 5 initialized @(32939,0)
GPGPU-Sim uArch: Shader 11 finished CTA #5 (33049,0), 5 CTAs running
GPGPU-Sim uArch: core: 11, cta: 5 initialized @(33050,0)
GPGPU-Sim PTX: 1300000 instructions simulated : ctaid=(11,7,0) tid=(15,3,0)
GPGPU-Sim uArch: Shader 13 finished CTA #4 (33374,0), 5 CTAs running
GPGPU-Sim uArch: core: 13, cta: 4 initialized @(33375,0)
GPGPU-Sim uArch: Shader 6 finished CTA #0 (33433,0), 5 CTAs running
GPGPU-Sim uArch: core:  6, cta: 0 initialized @(33434,0)
GPGPU-Sim uArch: cycles simulated: 33500  inst.: 1268224 (ipc=37.9) sim_rate=46971 (inst/sec) elapsed = 0:0:00:27 / Tue Apr 16 16:55:55 2019
GPGPU-Sim uArch: Shader 7 finished CTA #4 (33725,0), 5 CTAs running
GPGPU-Sim uArch: core:  7, cta: 4 initialized @(33726,0)
GPGPU-Sim uArch: Shader 3 finished CTA #0 (34069,0), 5 CTAs running
GPGPU-Sim uArch: core:  3, cta: 0 initialized @(34070,0)
GPGPU-Sim uArch: Shader 1 finished CTA #0 (34313,0), 5 CTAs running
GPGPU-Sim uArch: core:  1, cta: 0 initialized @(34314,0)
GPGPU-Sim uArch: cycles simulated: 34500  inst.: 1316256 (ipc=38.2) sim_rate=47009 (inst/sec) elapsed = 0:0:00:28 / Tue Apr 16 16:55:56 2019
GPGPU-Sim uArch: Shader 9 finished CTA #5 (34580,0), 5 CTAs running
GPGPU-Sim uArch: core:  9, cta: 5 initialized @(34581,0)
GPGPU-Sim uArch: Shader 5 finished CTA #5 (34691,0), 5 CTAs running
GPGPU-Sim uArch: core:  5, cta: 5 initialized @(34692,0)
GPGPU-Sim uArch: Shader 10 finished CTA #5 (34843,0), 5 CTAs running
GPGPU-Sim uArch: core: 10, cta: 5 initialized @(34844,0)
GPGPU-Sim uArch: Shader 2 finished CTA #0 (35223,0), 5 CTAs running
GPGPU-Sim uArch: core:  2, cta: 0 initialized @(35224,0)
GPGPU-Sim uArch: Shader 12 finished CTA #5 (35224,0), 5 CTAs running
GPGPU-Sim uArch: core: 12, cta: 5 initialized @(35225,0)
GPGPU-Sim PTX: 1400000 instructions simulated : ctaid=(9,8,0) tid=(15,11,0)
GPGPU-Sim uArch: Shader 14 finished CTA #0 (35613,0), 5 CTAs running
GPGPU-Sim uArch: core: 14, cta: 0 initialized @(35614,0)
GPGPU-Sim uArch: cycles simulated: 36000  inst.: 1392672 (ipc=38.7) sim_rate=48023 (inst/sec) elapsed = 0:0:00:29 / Tue Apr 16 16:55:57 2019
GPGPU-Sim uArch: Shader 6 finished CTA #1 (36289,0), 5 CTAs running
GPGPU-Sim uArch: core:  6, cta: 1 initialized @(36290,0)
GPGPU-Sim uArch: Shader 1 finished CTA #1 (36503,0), 5 CTAs running
GPGPU-Sim uArch: core:  1, cta: 1 initialized @(36504,0)
GPGPU-Sim uArch: Shader 7 finished CTA #5 (36505,0), 5 CTAs running
GPGPU-Sim uArch: core:  7, cta: 5 initialized @(36506,0)
GPGPU-Sim uArch: Shader 13 finished CTA #5 (36601,0), 5 CTAs running
GPGPU-Sim uArch: core: 13, cta: 5 initialized @(36602,0)
GPGPU-Sim uArch: Shader 6 finished CTA #2 (36922,0), 5 CTAs running
GPGPU-Sim uArch: core:  6, cta: 2 initialized @(36923,0)
GPGPU-Sim uArch: cycles simulated: 37000  inst.: 1441312 (ipc=39.0) sim_rate=48043 (inst/sec) elapsed = 0:0:00:30 / Tue Apr 16 16:55:58 2019
GPGPU-Sim uArch: Shader 12 finished CTA #0 (37005,0), 5 CTAs running
GPGPU-Sim uArch: core: 12, cta: 0 initialized @(37006,0)
GPGPU-Sim uArch: Shader 2 finished CTA #1 (37021,0), 5 CTAs running
GPGPU-Sim uArch: core:  2, cta: 1 initialized @(37022,0)
GPGPU-Sim PTX: 1500000 instructions simulated : ctaid=(2,8,0) tid=(15,11,0)
GPGPU-Sim uArch: Shader 8 finished CTA #0 (37338,0), 5 CTAs running
GPGPU-Sim uArch: core:  8, cta: 0 initialized @(37339,0)
GPGPU-Sim uArch: Shader 0 finished CTA #0 (37717,0), 5 CTAs running
GPGPU-Sim uArch: core:  0, cta: 0 initialized @(37718,0)
GPGPU-Sim uArch: Shader 1 finished CTA #2 (38243,0), 5 CTAs running
GPGPU-Sim uArch: core:  1, cta: 2 initialized @(38244,0)
GPGPU-Sim uArch: cycles simulated: 38500  inst.: 1473888 (ipc=38.3) sim_rate=47544 (inst/sec) elapsed = 0:0:00:31 / Tue Apr 16 16:55:59 2019
GPGPU-Sim uArch: Shader 5 finished CTA #0 (39591,0), 5 CTAs running
GPGPU-Sim uArch: core:  5, cta: 0 initialized @(39592,0)
GPGPU-Sim uArch: Shader 12 finished CTA #1 (39806,0), 5 CTAs running
GPGPU-Sim uArch: core: 12, cta: 1 initialized @(39807,0)
GPGPU-Sim uArch: cycles simulated: 40000  inst.: 1514016 (ipc=37.9) sim_rate=47313 (inst/sec) elapsed = 0:0:00:32 / Tue Apr 16 16:56:00 2019
GPGPU-Sim uArch: Shader 13 finished CTA #0 (40235,0), 5 CTAs running
GPGPU-Sim uArch: core: 13, cta: 0 initialized @(40236,0)
GPGPU-Sim uArch: Shader 10 finished CTA #0 (40245,0), 5 CTAs running
GPGPU-Sim uArch: core: 10, cta: 0 initialized @(40246,0)
GPGPU-Sim uArch: Shader 10 finished CTA #1 (40337,0), 5 CTAs running
GPGPU-Sim uArch: core: 10, cta: 1 initialized @(40338,0)
GPGPU-Sim uArch: Shader 9 finished CTA #0 (40745,0), 5 CTAs running
GPGPU-Sim uArch: core:  9, cta: 0 initialized @(40746,0)
GPGPU-Sim uArch: Shader 13 finished CTA #1 (40880,0), 5 CTAs running
GPGPU-Sim uArch: core: 13, cta: 1 initialized @(40881,0)
GPGPU-Sim uArch: Shader 2 finished CTA #2 (40891,0), 5 CTAs running
GPGPU-Sim uArch: core:  2, cta: 2 initialized @(40892,0)
GPGPU-Sim PTX: 1600000 instructions simulated : ctaid=(8,12,0) tid=(15,5,0)
GPGPU-Sim uArch: Shader 14 finished CTA #1 (40939,0), 5 CTAs running
GPGPU-Sim uArch: core: 14, cta: 1 initialized @(40940,0)
GPGPU-Sim uArch: cycles simulated: 41000  inst.: 1559136 (ipc=38.0) sim_rate=47246 (inst/sec) elapsed = 0:0:00:33 / Tue Apr 16 16:56:01 2019
GPGPU-Sim uArch: Shader 9 finished CTA #1 (41197,0), 5 CTAs running
GPGPU-Sim uArch: core:  9, cta: 1 initialized @(41198,0)
GPGPU-Sim uArch: Shader 0 finished CTA #1 (41487,0), 5 CTAs running
GPGPU-Sim uArch: core:  0, cta: 1 initialized @(41488,0)
GPGPU-Sim uArch: Shader 4 finished CTA #1 (41491,0), 5 CTAs running
GPGPU-Sim uArch: core:  4, cta: 1 initialized @(41492,0)
GPGPU-Sim uArch: Shader 0 finished CTA #2 (41525,0), 5 CTAs running
GPGPU-Sim uArch: core:  0, cta: 2 initialized @(41526,0)
GPGPU-Sim uArch: Shader 0 finished CTA #3 (41578,0), 5 CTAs running
GPGPU-Sim uArch: core:  0, cta: 3 initialized @(41579,0)
GPGPU-Sim uArch: Shader 3 finished CTA #1 (41750,0), 5 CTAs running
GPGPU-Sim uArch: core:  3, cta: 1 initialized @(41751,0)
GPGPU-Sim uArch: cycles simulated: 42000  inst.: 1603648 (ipc=38.2) sim_rate=47166 (inst/sec) elapsed = 0:0:00:34 / Tue Apr 16 16:56:02 2019
GPGPU-Sim uArch: Shader 6 finished CTA #3 (42006,0), 5 CTAs running
GPGPU-Sim uArch: core:  6, cta: 3 initialized @(42007,0)
GPGPU-Sim uArch: Shader 11 finished CTA #0 (42259,0), 5 CTAs running
GPGPU-Sim uArch: core: 11, cta: 0 initialized @(42260,0)
GPGPU-Sim uArch: Shader 11 finished CTA #1 (42511,0), 5 CTAs running
GPGPU-Sim uArch: core: 11, cta: 1 initialized @(42512,0)
GPGPU-Sim uArch: Shader 11 finished CTA #2 (42559,0), 5 CTAs running
GPGPU-Sim uArch: core: 11, cta: 2 initialized @(42560,0)
GPGPU-Sim uArch: Shader 7 finished CTA #0 (42674,0), 5 CTAs running
GPGPU-Sim uArch: core:  7, cta: 0 initialized @(42675,0)
GPGPU-Sim PTX: 1700000 instructions simulated : ctaid=(10,11,0) tid=(15,3,0)
GPGPU-Sim uArch: Shader 5 finished CTA #1 (43080,0), 5 CTAs running
GPGPU-Sim uArch: core:  5, cta: 1 initialized @(43081,0)
GPGPU-Sim uArch: Shader 8 finished CTA #1 (43132,0), 5 CTAs running
GPGPU-Sim uArch: core:  8, cta: 1 initialized @(43133,0)
GPGPU-Sim uArch: Shader 14 finished CTA #2 (43270,0), 5 CTAs running
GPGPU-Sim uArch: core: 14, cta: 2 initialized @(43271,0)
GPGPU-Sim uArch: Shader 11 finished CTA #3 (43382,0), 5 CTAs running
GPGPU-Sim uArch: core: 11, cta: 3 initialized @(43383,0)
GPGPU-Sim uArch: Shader 8 finished CTA #2 (43432,0), 5 CTAs running
GPGPU-Sim uArch: core:  8, cta: 2 initialized @(43433,0)
GPGPU-Sim uArch: Shader 10 finished CTA #2 (43469,0), 5 CTAs running
GPGPU-Sim uArch: core: 10, cta: 2 initialized @(43470,0)
GPGPU-Sim uArch: cycles simulated: 43500  inst.: 1685760 (ipc=38.8) sim_rate=48164 (inst/sec) elapsed = 0:0:00:35 / Tue Apr 16 16:56:03 2019
GPGPU-Sim uArch: Shader 3 finished CTA #2 (44100,0), 5 CTAs running
GPGPU-Sim uArch: core:  3, cta: 2 initialized @(44101,0)
GPGPU-Sim uArch: cycles simulated: 44500  inst.: 1703168 (ipc=38.3) sim_rate=47310 (inst/sec) elapsed = 0:0:00:36 / Tue Apr 16 16:56:04 2019
GPGPU-Sim uArch: Shader 0 finished CTA #4 (45024,0), 5 CTAs running
GPGPU-Sim uArch: core:  0, cta: 4 initialized @(45025,0)
GPGPU-Sim uArch: Shader 4 finished CTA #2 (45432,0), 5 CTAs running
GPGPU-Sim uArch: core:  4, cta: 2 initialized @(45433,0)
GPGPU-Sim uArch: Shader 4 finished CTA #4 (45459,0), 5 CTAs running
GPGPU-Sim uArch: core:  4, cta: 4 initialized @(45460,0)
GPGPU-Sim uArch: Shader 5 finished CTA #2 (45628,0), 5 CTAs running
GPGPU-Sim uArch: core:  5, cta: 2 initialized @(45629,0)
GPGPU-Sim uArch: Shader 11 finished CTA #4 (45786,0), 5 CTAs running
GPGPU-Sim uArch: core: 11, cta: 4 initialized @(45787,0)
GPGPU-Sim uArch: Shader 8 finished CTA #3 (45909,0), 5 CTAs running
GPGPU-Sim uArch: core:  8, cta: 3 initialized @(45910,0)
GPGPU-Sim PTX: 1800000 instructions simulated : ctaid=(2,14,0) tid=(15,13,0)
GPGPU-Sim uArch: Shader 7 finished CTA #1 (45942,0), 5 CTAs running
GPGPU-Sim uArch: core:  7, cta: 1 initialized @(45943,0)
GPGPU-Sim uArch: cycles simulated: 46000  inst.: 1750528 (ipc=38.1) sim_rate=47311 (inst/sec) elapsed = 0:0:00:37 / Tue Apr 16 16:56:05 2019
GPGPU-Sim uArch: Shader 6 finished CTA #4 (46055,0), 5 CTAs running
GPGPU-Sim uArch: core:  6, cta: 4 initialized @(46056,0)
GPGPU-Sim uArch: Shader 13 finished CTA #2 (46210,0), 5 CTAs running
GPGPU-Sim uArch: core: 13, cta: 2 initialized @(46211,0)
GPGPU-Sim uArch: Shader 9 finished CTA #2 (46433,0), 5 CTAs running
GPGPU-Sim uArch: core:  9, cta: 2 initialized @(46434,0)
GPGPU-Sim uArch: cycles simulated: 47000  inst.: 1799904 (ipc=38.3) sim_rate=47365 (inst/sec) elapsed = 0:0:00:38 / Tue Apr 16 16:56:06 2019
GPGPU-Sim uArch: Shader 0 finished CTA #5 (47105,0), 5 CTAs running
GPGPU-Sim uArch: core:  0, cta: 5 initialized @(47106,0)
GPGPU-Sim uArch: Shader 3 finished CTA #3 (47191,0), 5 CTAs running
GPGPU-Sim uArch: core:  3, cta: 3 initialized @(47192,0)
GPGPU-Sim uArch: Shader 12 finished CTA #2 (47631,0), 5 CTAs running
GPGPU-Sim uArch: core: 12, cta: 2 initialized @(47632,0)
GPGPU-Sim uArch: Shader 2 finished CTA #3 (47653,0), 5 CTAs running
GPGPU-Sim uArch: core:  2, cta: 3 initialized @(47654,0)
GPGPU-Sim uArch: Shader 1 finished CTA #3 (47896,0), 5 CTAs running
GPGPU-Sim uArch: core:  1, cta: 3 initialized @(47897,0)
GPGPU-Sim PTX: 1900000 instructions simulated : ctaid=(10,8,0) tid=(15,3,0)
GPGPU-Sim uArch: Shader 4 finished CTA #3 (48005,0), 5 CTAs running
GPGPU-Sim uArch: core:  4, cta: 3 initialized @(48006,0)
GPGPU-Sim uArch: Shader 11 finished CTA #5 (48088,0), 5 CTAs running
GPGPU-Sim uArch: core: 11, cta: 5 initialized @(48089,0)
GPGPU-Sim uArch: Shader 14 finished CTA #3 (48184,0), 5 CTAs running
GPGPU-Sim uArch: core: 14, cta: 3 initialized @(48185,0)
GPGPU-Sim uArch: Shader 7 finished CTA #2 (48294,0), 5 CTAs running
GPGPU-Sim uArch: core:  7, cta: 2 initialized @(48295,0)
GPGPU-Sim uArch: Shader 13 finished CTA #3 (48342,0), 5 CTAs running
GPGPU-Sim uArch: core: 13, cta: 3 initialized @(48343,0)
GPGPU-Sim uArch: Shader 8 finished CTA #4 (48377,0), 5 CTAs running
GPGPU-Sim uArch: core:  8, cta: 4 initialized @(48378,0)
GPGPU-Sim uArch: cycles simulated: 48500  inst.: 1874912 (ipc=38.7) sim_rate=48074 (inst/sec) elapsed = 0:0:00:39 / Tue Apr 16 16:56:07 2019
GPGPU-Sim uArch: Shader 12 finished CTA #3 (48973,0), 5 CTAs running
GPGPU-Sim uArch: core: 12, cta: 3 initialized @(48974,0)
GPGPU-Sim uArch: Shader 6 finished CTA #5 (48998,0), 5 CTAs running
GPGPU-Sim uArch: core:  6, cta: 5 initialized @(48999,0)
GPGPU-Sim uArch: Shader 4 finished CTA #5 (49135,0), 5 CTAs running
GPGPU-Sim uArch: core:  4, cta: 5 initialized @(49136,0)
GPGPU-Sim uArch: Shader 0 finished CTA #0 (49258,0), 5 CTAs running
GPGPU-Sim uArch: core:  0, cta: 0 initialized @(49259,0)
GPGPU-Sim uArch: Shader 9 finished CTA #3 (49346,0), 5 CTAs running
GPGPU-Sim uArch: core:  9, cta: 3 initialized @(49347,0)
GPGPU-Sim PTX: 2000000 instructions simulated : ctaid=(6,15,0) tid=(15,15,0)
GPGPU-Sim uArch: Shader 12 finished CTA #4 (49450,0), 5 CTAs running
GPGPU-Sim uArch: core: 12, cta: 4 initialized @(49451,0)
GPGPU-Sim uArch: cycles simulated: 49500  inst.: 1941888 (ipc=39.2) sim_rate=48547 (inst/sec) elapsed = 0:0:00:40 / Tue Apr 16 16:56:08 2019
GPGPU-Sim uArch: Shader 7 finished CTA #3 (49862,0), 5 CTAs running
GPGPU-Sim uArch: core:  7, cta: 3 initialized @(49863,0)
GPGPU-Sim uArch: Shader 10 finished CTA #3 (49917,0), 5 CTAs running
GPGPU-Sim uArch: core: 10, cta: 3 initialized @(49918,0)
GPGPU-Sim uArch: Shader 14 finished CTA #4 (50118,0), 5 CTAs running
GPGPU-Sim uArch: core: 14, cta: 4 initialized @(50119,0)
GPGPU-Sim uArch: Shader 5 finished CTA #3 (50355,0), 5 CTAs running
GPGPU-Sim uArch: core:  5, cta: 3 initialized @(50356,0)
GPGPU-Sim uArch: cycles simulated: 50500  inst.: 1974272 (ipc=39.1) sim_rate=48152 (inst/sec) elapsed = 0:0:00:41 / Tue Apr 16 16:56:09 2019
GPGPU-Sim uArch: Shader 5 finished CTA #4 (50531,0), 5 CTAs running
GPGPU-Sim uArch: core:  5, cta: 4 initialized @(50532,0)
GPGPU-Sim uArch: Shader 1 finished CTA #4 (50686,0), 5 CTAs running
GPGPU-Sim uArch: core:  1, cta: 4 initialized @(50687,0)
GPGPU-Sim uArch: Shader 5 finished CTA #5 (50713,0), 5 CTAs running
GPGPU-Sim uArch: core:  5, cta: 5 initialized @(50714,0)
GPGPU-Sim uArch: Shader 7 finished CTA #4 (50813,0), 5 CTAs running
GPGPU-Sim uArch: core:  7, cta: 4 initialized @(50814,0)
GPGPU-Sim uArch: Shader 2 finished CTA #4 (50956,0), 5 CTAs running
GPGPU-Sim uArch: core:  2, cta: 4 initialized @(50957,0)
GPGPU-Sim uArch: Shader 2 finished CTA #5 (51164,0), 5 CTAs running
GPGPU-Sim uArch: core:  2, cta: 5 initialized @(51165,0)
GPGPU-Sim uArch: Shader 1 finished CTA #5 (51186,0), 5 CTAs running
GPGPU-Sim uArch: core:  1, cta: 5 initialized @(51187,0)
GPGPU-Sim uArch: Shader 12 finished CTA #5 (51341,0), 5 CTAs running
GPGPU-Sim uArch: core: 12, cta: 5 initialized @(51342,0)
GPGPU-Sim uArch: cycles simulated: 51500  inst.: 2021984 (ipc=39.3) sim_rate=48142 (inst/sec) elapsed = 0:0:00:42 / Tue Apr 16 16:56:10 2019
GPGPU-Sim uArch: Shader 6 finished CTA #0 (51544,0), 5 CTAs running
GPGPU-Sim uArch: core:  6, cta: 0 initialized @(51545,0)
GPGPU-Sim uArch: Shader 2 finished CTA #0 (51617,0), 5 CTAs running
GPGPU-Sim uArch: core:  2, cta: 0 initialized @(51618,0)
GPGPU-Sim uArch: Shader 13 finished CTA #4 (51917,0), 5 CTAs running
GPGPU-Sim uArch: core: 13, cta: 4 initialized @(51918,0)
GPGPU-Sim uArch: Shader 1 finished CTA #0 (51997,0), 5 CTAs running
GPGPU-Sim uArch: core:  1, cta: 0 initialized @(51998,0)
GPGPU-Sim uArch: Shader 2 finished CTA #1 (52006,0), 5 CTAs running
GPGPU-Sim uArch: core:  2, cta: 1 initialized @(52007,0)
GPGPU-Sim PTX: 2100000 instructions simulated : ctaid=(8,16,0) tid=(15,3,0)
GPGPU-Sim uArch: Shader 10 finished CTA #4 (52416,0), 5 CTAs running
GPGPU-Sim uArch: core: 10, cta: 4 initialized @(52417,0)
GPGPU-Sim uArch: Shader 9 finished CTA #4 (52448,0), 5 CTAs running
GPGPU-Sim uArch: core:  9, cta: 4 initialized @(52449,0)
GPGPU-Sim uArch: Shader 9 finished CTA #5 (52683,0), 5 CTAs running
GPGPU-Sim uArch: core:  9, cta: 5 initialized @(52684,0)
GPGPU-Sim uArch: Shader 10 finished CTA #5 (52719,0), 5 CTAs running
GPGPU-Sim uArch: core: 10, cta: 5 initialized @(52720,0)
GPGPU-Sim uArch: cycles simulated: 53000  inst.: 2106816 (ipc=39.8) sim_rate=48995 (inst/sec) elapsed = 0:0:00:43 / Tue Apr 16 16:56:11 2019
GPGPU-Sim uArch: Shader 3 finished CTA #4 (53245,0), 5 CTAs running
GPGPU-Sim uArch: core:  3, cta: 4 initialized @(53246,0)
GPGPU-Sim uArch: Shader 8 finished CTA #5 (53794,0), 5 CTAs running
GPGPU-Sim uArch: core:  8, cta: 5 initialized @(53795,0)
GPGPU-Sim uArch: cycles simulated: 54000  inst.: 2125184 (ipc=39.4) sim_rate=48299 (inst/sec) elapsed = 0:0:00:44 / Tue Apr 16 16:56:12 2019
GPGPU-Sim PTX: 2200000 instructions simulated : ctaid=(8,15,0) tid=(15,9,0)
GPGPU-Sim uArch: Shader 12 finished CTA #0 (55279,0), 5 CTAs running
GPGPU-Sim uArch: core: 12, cta: 0 initialized @(55280,0)
GPGPU-Sim uArch: Shader 13 finished CTA #5 (55457,0), 5 CTAs running
GPGPU-Sim uArch: core: 13, cta: 5 initialized @(55458,0)
GPGPU-Sim uArch: cycles simulated: 55500  inst.: 2164096 (ipc=39.0) sim_rate=48091 (inst/sec) elapsed = 0:0:00:45 / Tue Apr 16 16:56:13 2019
GPGPU-Sim uArch: Shader 1 finished CTA #1 (55815,0), 5 CTAs running
GPGPU-Sim uArch: core:  1, cta: 1 initialized @(55816,0)
GPGPU-Sim uArch: Shader 6 finished CTA #1 (55873,0), 5 CTAs running
GPGPU-Sim uArch: core:  6, cta: 1 initialized @(55874,0)
GPGPU-Sim uArch: Shader 3 finished CTA #5 (56572,0), 5 CTAs running
GPGPU-Sim uArch: core:  3, cta: 5 initialized @(56573,0)
GPGPU-Sim uArch: cycles simulated: 57000  inst.: 2192512 (ipc=38.5) sim_rate=47663 (inst/sec) elapsed = 0:0:00:46 / Tue Apr 16 16:56:14 2019
GPGPU-Sim uArch: Shader 14 finished CTA #5 (57014,0), 5 CTAs running
GPGPU-Sim uArch: core: 14, cta: 5 initialized @(57015,0)
GPGPU-Sim uArch: Shader 2 finished CTA #2 (57753,0), 5 CTAs running
GPGPU-Sim uArch: core:  2, cta: 2 initialized @(57754,0)
GPGPU-Sim uArch: Shader 3 finished CTA #0 (57760,0), 5 CTAs running
GPGPU-Sim uArch: core:  3, cta: 0 initialized @(57761,0)
GPGPU-Sim PTX: 2300000 instructions simulated : ctaid=(6,17,0) tid=(15,5,0)
GPGPU-Sim uArch: Shader 11 finished CTA #0 (57968,0), 5 CTAs running
GPGPU-Sim uArch: core: 11, cta: 0 initialized @(57969,0)
GPGPU-Sim uArch: cycles simulated: 58000  inst.: 2238560 (ipc=38.6) sim_rate=47628 (inst/sec) elapsed = 0:0:00:47 / Tue Apr 16 16:56:15 2019
GPGPU-Sim uArch: Shader 9 finished CTA #0 (58033,0), 5 CTAs running
GPGPU-Sim uArch: core:  9, cta: 0 initialized @(58034,0)
GPGPU-Sim uArch: Shader 4 finished CTA #0 (58367,0), 5 CTAs running
GPGPU-Sim uArch: core:  4, cta: 0 initialized @(58368,0)
GPGPU-Sim uArch: Shader 6 finished CTA #2 (59038,0), 5 CTAs running
GPGPU-Sim uArch: core:  6, cta: 2 initialized @(59039,0)
GPGPU-Sim uArch: Shader 10 finished CTA #0 (59214,0), 5 CTAs running
GPGPU-Sim uArch: core: 10, cta: 0 initialized @(59215,0)
GPGPU-Sim uArch: Shader 0 finished CTA #1 (59300,0), 5 CTAs running
GPGPU-Sim uArch: core:  0, cta: 1 initialized @(59301,0)
GPGPU-Sim uArch: Shader 14 finished CTA #0 (59341,0), 5 CTAs running
GPGPU-Sim uArch: core: 14, cta: 0 initialized @(59342,0)
GPGPU-Sim uArch: cycles simulated: 59500  inst.: 2298592 (ipc=38.6) sim_rate=47887 (inst/sec) elapsed = 0:0:00:48 / Tue Apr 16 16:56:16 2019
GPGPU-Sim uArch: Shader 5 finished CTA #0 (59522,0), 5 CTAs running
GPGPU-Sim uArch: core:  5, cta: 0 initialized @(59523,0)
GPGPU-Sim uArch: Shader 1 finished CTA #2 (60334,0), 5 CTAs running
GPGPU-Sim uArch: core:  1, cta: 2 initialized @(60335,0)
GPGPU-Sim uArch: Shader 13 finished CTA #0 (60398,0), 5 CTAs running
GPGPU-Sim uArch: core: 13, cta: 0 initialized @(60399,0)
GPGPU-Sim uArch: cycles simulated: 60500  inst.: 2322144 (ipc=38.4) sim_rate=47390 (inst/sec) elapsed = 0:0:00:49 / Tue Apr 16 16:56:17 2019
GPGPU-Sim uArch: Shader 12 finished CTA #1 (60614,0), 5 CTAs running
GPGPU-Sim uArch: core: 12, cta: 1 initialized @(60615,0)
GPGPU-Sim PTX: 2400000 instructions simulated : ctaid=(5,17,0) tid=(15,1,0)
GPGPU-Sim uArch: Shader 3 finished CTA #1 (61015,0), 5 CTAs running
GPGPU-Sim uArch: core:  3, cta: 1 initialized @(61016,0)
GPGPU-Sim uArch: Shader 9 finished CTA #1 (61021,0), 5 CTAs running
GPGPU-Sim uArch: core:  9, cta: 1 initialized @(61022,0)
GPGPU-Sim uArch: Shader 2 finished CTA #4 (61185,0), 5 CTAs running
GPGPU-Sim uArch: core:  2, cta: 4 initialized @(61186,0)
GPGPU-Sim uArch: Shader 10 finished CTA #1 (61245,0), 5 CTAs running
GPGPU-Sim uArch: core: 10, cta: 1 initialized @(61246,0)
GPGPU-Sim uArch: Shader 2 finished CTA #3 (61308,0), 5 CTAs running
GPGPU-Sim uArch: core:  2, cta: 3 initialized @(61309,0)
GPGPU-Sim uArch: Shader 2 finished CTA #5 (61553,0), 5 CTAs running
GPGPU-Sim uArch: core:  2, cta: 5 initialized @(61554,0)
GPGPU-Sim uArch: Shader 6 finished CTA #3 (61577,0), 5 CTAs running
GPGPU-Sim uArch: core:  6, cta: 3 initialized @(61578,0)
GPGPU-Sim uArch: Shader 14 finished CTA #1 (61804,0), 5 CTAs running
GPGPU-Sim uArch: core: 14, cta: 1 initialized @(61805,0)
GPGPU-Sim uArch: Shader 8 finished CTA #0 (61856,0), 5 CTAs running
GPGPU-Sim uArch: core:  8, cta: 0 initialized @(61857,0)
GPGPU-Sim uArch: Shader 0 finished CTA #2 (61862,0), 5 CTAs running
GPGPU-Sim uArch: core:  0, cta: 2 initialized @(61863,0)
GPGPU-Sim uArch: Shader 2 finished CTA #0 (61998,0), 5 CTAs running
GPGPU-Sim uArch: core:  2, cta: 0 initialized @(61999,0)
GPGPU-Sim uArch: cycles simulated: 62000  inst.: 2394848 (ipc=38.6) sim_rate=47896 (inst/sec) elapsed = 0:0:00:50 / Tue Apr 16 16:56:18 2019
GPGPU-Sim uArch: Shader 4 finished CTA #1 (62104,0), 5 CTAs running
GPGPU-Sim uArch: core:  4, cta: 1 initialized @(62105,0)
GPGPU-Sim uArch: Shader 7 finished CTA #5 (62402,0), 5 CTAs running
GPGPU-Sim uArch: core:  7, cta: 5 initialized @(62403,0)
GPGPU-Sim uArch: Shader 13 finished CTA #1 (62596,0), 5 CTAs running
GPGPU-Sim uArch: core: 13, cta: 1 initialized @(62597,0)
GPGPU-Sim uArch: Shader 11 finished CTA #1 (62798,0), 5 CTAs running
GPGPU-Sim uArch: core: 11, cta: 1 initialized @(62799,0)
GPGPU-Sim PTX: 2500000 instructions simulated : ctaid=(0,19,0) tid=(15,7,0)
GPGPU-Sim uArch: Shader 2 finished CTA #1 (62844,0), 5 CTAs running
GPGPU-Sim uArch: core:  2, cta: 1 initialized @(62845,0)
GPGPU-Sim uArch: cycles simulated: 63000  inst.: 2438752 (ipc=38.7) sim_rate=47818 (inst/sec) elapsed = 0:0:00:51 / Tue Apr 16 16:56:19 2019
GPGPU-Sim uArch: Shader 3 finished CTA #2 (63211,0), 5 CTAs running
GPGPU-Sim uArch: core:  3, cta: 2 initialized @(63212,0)
GPGPU-Sim uArch: Shader 1 finished CTA #3 (63330,0), 5 CTAs running
GPGPU-Sim uArch: core:  1, cta: 3 initialized @(63331,0)
GPGPU-Sim uArch: Shader 2 finished CTA #2 (63453,0), 5 CTAs running
GPGPU-Sim uArch: core:  2, cta: 2 initialized @(63454,0)
GPGPU-Sim uArch: Shader 6 finished CTA #4 (63728,0), 5 CTAs running
GPGPU-Sim uArch: core:  6, cta: 4 initialized @(63729,0)
GPGPU-Sim uArch: Shader 9 finished CTA #2 (63812,0), 5 CTAs running
GPGPU-Sim uArch: core:  9, cta: 2 initialized @(63813,0)
GPGPU-Sim uArch: Shader 8 finished CTA #1 (63831,0), 5 CTAs running
GPGPU-Sim uArch: core:  8, cta: 1 initialized @(63832,0)
GPGPU-Sim uArch: cycles simulated: 64000  inst.: 2483584 (ipc=38.8) sim_rate=47761 (inst/sec) elapsed = 0:0:00:52 / Tue Apr 16 16:56:20 2019
GPGPU-Sim uArch: Shader 14 finished CTA #2 (64172,0), 5 CTAs running
GPGPU-Sim uArch: core: 14, cta: 2 initialized @(64173,0)
GPGPU-Sim uArch: Shader 7 finished CTA #0 (64322,0), 5 CTAs running
GPGPU-Sim uArch: core:  7, cta: 0 initialized @(64323,0)
GPGPU-Sim uArch: Shader 0 finished CTA #3 (64412,0), 5 CTAs running
GPGPU-Sim uArch: core:  0, cta: 3 initialized @(64413,0)
GPGPU-Sim uArch: Shader 10 finished CTA #2 (64472,0), 5 CTAs running
GPGPU-Sim uArch: core: 10, cta: 2 initialized @(64473,0)
GPGPU-Sim PTX: 2600000 instructions simulated : ctaid=(7,18,0) tid=(15,7,0)
GPGPU-Sim uArch: Shader 2 finished CTA #4 (64556,0), 5 CTAs running
GPGPU-Sim uArch: core:  2, cta: 4 initialized @(64557,0)
GPGPU-Sim uArch: Shader 12 finished CTA #2 (64564,0), 5 CTAs running
GPGPU-Sim uArch: core: 12, cta: 2 initialized @(64565,0)
GPGPU-Sim uArch: Shader 11 finished CTA #2 (65335,0), 5 CTAs running
GPGPU-Sim uArch: core: 11, cta: 2 initialized @(65336,0)
GPGPU-Sim uArch: Shader 5 finished CTA #1 (65337,0), 5 CTAs running
GPGPU-Sim uArch: core:  5, cta: 1 initialized @(65338,0)
GPGPU-Sim uArch: cycles simulated: 65500  inst.: 2573696 (ipc=39.3) sim_rate=48560 (inst/sec) elapsed = 0:0:00:53 / Tue Apr 16 16:56:21 2019
GPGPU-Sim uArch: Shader 3 finished CTA #3 (65863,0), 5 CTAs running
GPGPU-Sim uArch: core:  3, cta: 3 initialized @(65864,0)
GPGPU-Sim uArch: Shader 13 finished CTA #2 (65920,0), 5 CTAs running
GPGPU-Sim uArch: core: 13, cta: 2 initialized @(65921,0)
GPGPU-Sim PTX: 2700000 instructions simulated : ctaid=(15,14,0) tid=(15,7,0)
GPGPU-Sim uArch: Shader 1 finished CTA #4 (66203,0), 5 CTAs running
GPGPU-Sim uArch: core:  1, cta: 4 initialized @(66204,0)
GPGPU-Sim uArch: Shader 8 finished CTA #2 (66266,0), 5 CTAs running
GPGPU-Sim uArch: core:  8, cta: 2 initialized @(66267,0)
GPGPU-Sim uArch: Shader 0 finished CTA #4 (66334,0), 5 CTAs running
GPGPU-Sim uArch: core:  0, cta: 4 initialized @(66335,0)
GPGPU-Sim uArch: Shader 2 finished CTA #3 (66342,0), 5 CTAs running
GPGPU-Sim uArch: core:  2, cta: 3 initialized @(66343,0)
GPGPU-Sim uArch: Shader 9 finished CTA #3 (66460,0), 5 CTAs running
GPGPU-Sim uArch: core:  9, cta: 3 initialized @(66461,0)
GPGPU-Sim uArch: cycles simulated: 66500  inst.: 2648224 (ipc=39.8) sim_rate=49041 (inst/sec) elapsed = 0:0:00:54 / Tue Apr 16 16:56:22 2019
GPGPU-Sim uArch: Shader 7 finished CTA #1 (66625,0), 5 CTAs running
GPGPU-Sim uArch: core:  7, cta: 1 initialized @(66626,0)
GPGPU-Sim uArch: Shader 14 finished CTA #3 (66629,0), 5 CTAs running
GPGPU-Sim uArch: core: 14, cta: 3 initialized @(66630,0)
GPGPU-Sim uArch: Shader 2 finished CTA #5 (66734,0), 5 CTAs running
GPGPU-Sim uArch: core:  2, cta: 5 initialized @(66735,0)
GPGPU-Sim uArch: Shader 6 finished CTA #5 (66769,0), 5 CTAs running
GPGPU-Sim uArch: core:  6, cta: 5 initialized @(66770,0)
GPGPU-Sim uArch: Shader 10 finished CTA #3 (66957,0), 5 CTAs running
GPGPU-Sim uArch: core: 10, cta: 3 initialized @(66958,0)
GPGPU-Sim uArch: Shader 13 finished CTA #3 (67308,0), 5 CTAs running
GPGPU-Sim uArch: core: 13, cta: 3 initialized @(67309,0)
GPGPU-Sim uArch: cycles simulated: 67500  inst.: 2673952 (ipc=39.6) sim_rate=48617 (inst/sec) elapsed = 0:0:00:55 / Tue Apr 16 16:56:23 2019
GPGPU-Sim uArch: Shader 6 finished CTA #0 (67533,0), 5 CTAs running
GPGPU-Sim uArch: core:  6, cta: 0 initialized @(67534,0)
GPGPU-Sim uArch: Shader 12 finished CTA #3 (68422,0), 5 CTAs running
GPGPU-Sim uArch: core: 12, cta: 3 initialized @(68423,0)
GPGPU-Sim uArch: Shader 11 finished CTA #3 (68891,0), 5 CTAs running
GPGPU-Sim uArch: core: 11, cta: 3 initialized @(68892,0)
GPGPU-Sim uArch: cycles simulated: 69000  inst.: 2717152 (ipc=39.4) sim_rate=48520 (inst/sec) elapsed = 0:0:00:56 / Tue Apr 16 16:56:24 2019
GPGPU-Sim PTX: 2800000 instructions simulated : ctaid=(3,20,0) tid=(15,15,0)
GPGPU-Sim uArch: Shader 10 finished CTA #4 (69237,0), 5 CTAs running
GPGPU-Sim uArch: core: 10, cta: 4 initialized @(69238,0)
GPGPU-Sim uArch: Shader 6 finished CTA #1 (69583,0), 5 CTAs running
GPGPU-Sim uArch: core:  6, cta: 1 initialized @(69584,0)
GPGPU-Sim uArch: cycles simulated: 70000  inst.: 2732320 (ipc=39.0) sim_rate=47935 (inst/sec) elapsed = 0:0:00:57 / Tue Apr 16 16:56:25 2019
GPGPU-Sim uArch: Shader 4 finished CTA #2 (70916,0), 5 CTAs running
GPGPU-Sim uArch: core:  4, cta: 2 initialized @(70917,0)
GPGPU-Sim uArch: Shader 4 finished CTA #4 (71096,0), 5 CTAs running
GPGPU-Sim uArch: core:  4, cta: 4 initialized @(71097,0)
GPGPU-Sim uArch: cycles simulated: 71500  inst.: 2764992 (ipc=38.7) sim_rate=47672 (inst/sec) elapsed = 0:0:00:58 / Tue Apr 16 16:56:26 2019
GPGPU-Sim uArch: Shader 11 finished CTA #4 (71941,0), 5 CTAs running
GPGPU-Sim uArch: core: 11, cta: 4 initialized @(71942,0)
GPGPU-Sim uArch: Shader 2 finished CTA #0 (72157,0), 5 CTAs running
GPGPU-Sim uArch: core:  2, cta: 0 initialized @(72158,0)
GPGPU-Sim uArch: Shader 6 finished CTA #2 (72264,0), 5 CTAs running
GPGPU-Sim uArch: core:  6, cta: 2 initialized @(72265,0)
GPGPU-Sim uArch: Shader 8 finished CTA #3 (72329,0), 5 CTAs running
GPGPU-Sim uArch: core:  8, cta: 3 initialized @(72330,0)
GPGPU-Sim PTX: 2900000 instructions simulated : ctaid=(6,17,0) tid=(15,3,0)
GPGPU-Sim uArch: Shader 12 finished CTA #4 (72383,0), 5 CTAs running
GPGPU-Sim uArch: core: 12, cta: 4 initialized @(72384,0)
GPGPU-Sim uArch: Shader 1 finished CTA #5 (72472,0), 5 CTAs running
GPGPU-Sim uArch: core:  1, cta: 5 initialized @(72473,0)
GPGPU-Sim uArch: Shader 7 finished CTA #2 (72494,0), 5 CTAs running
GPGPU-Sim uArch: core:  7, cta: 2 initialized @(72495,0)
GPGPU-Sim uArch: cycles simulated: 72500  inst.: 2824416 (ipc=39.0) sim_rate=47871 (inst/sec) elapsed = 0:0:00:59 / Tue Apr 16 16:56:27 2019
GPGPU-Sim uArch: Shader 4 finished CTA #3 (72750,0), 5 CTAs running
GPGPU-Sim uArch: core:  4, cta: 3 initialized @(72751,0)
GPGPU-Sim uArch: Shader 13 finished CTA #4 (72852,0), 5 CTAs running
GPGPU-Sim uArch: core: 13, cta: 4 initialized @(72853,0)
GPGPU-Sim uArch: Shader 9 finished CTA #4 (72930,0), 5 CTAs running
GPGPU-Sim uArch: core:  9, cta: 4 initialized @(72931,0)
GPGPU-Sim uArch: Shader 5 finished CTA #2 (72982,0), 5 CTAs running
GPGPU-Sim uArch: core:  5, cta: 2 initialized @(72983,0)
GPGPU-Sim uArch: Shader 1 finished CTA #0 (73238,0), 5 CTAs running
GPGPU-Sim uArch: core:  1, cta: 0 initialized @(73239,0)
GPGPU-Sim uArch: Shader 3 finished CTA #4 (73314,0), 5 CTAs running
GPGPU-Sim uArch: core:  3, cta: 4 initialized @(73315,0)
GPGPU-Sim uArch: Shader 11 finished CTA #5 (73362,0), 5 CTAs running
GPGPU-Sim uArch: core: 11, cta: 5 initialized @(73363,0)
GPGPU-Sim uArch: Shader 4 finished CTA #5 (73449,0), 5 CTAs running
GPGPU-Sim uArch: core:  4, cta: 5 initialized @(73450,0)
GPGPU-Sim uArch: Shader 6 finished CTA #3 (73632,0), 5 CTAs running
GPGPU-Sim uArch: core:  6, cta: 3 initialized @(73633,0)
GPGPU-Sim uArch: Shader 14 finished CTA #4 (73678,0), 5 CTAs running
GPGPU-Sim uArch: core: 14, cta: 4 initialized @(73679,0)
GPGPU-Sim uArch: Shader 5 finished CTA #3 (73682,0), 5 CTAs running
GPGPU-Sim uArch: core:  5, cta: 3 initialized @(73683,0)
GPGPU-Sim PTX: 3000000 instructions simulated : ctaid=(10,20,0) tid=(15,7,0)
GPGPU-Sim uArch: Shader 12 finished CTA #5 (73980,0), 5 CTAs running
GPGPU-Sim uArch: core: 12, cta: 5 initialized @(73981,0)
GPGPU-Sim uArch: cycles simulated: 74000  inst.: 2936544 (ipc=39.7) sim_rate=48942 (inst/sec) elapsed = 0:0:01:00 / Tue Apr 16 16:56:28 2019
GPGPU-Sim uArch: Shader 8 finished CTA #4 (74028,0), 5 CTAs running
GPGPU-Sim uArch: core:  8, cta: 4 initialized @(74029,0)
GPGPU-Sim uArch: Shader 7 finished CTA #3 (74047,0), 5 CTAs running
GPGPU-Sim uArch: core:  7, cta: 3 initialized @(74048,0)
GPGPU-Sim uArch: Shader 0 finished CTA #5 (74278,0), 5 CTAs running
GPGPU-Sim uArch: core:  0, cta: 5 initialized @(74279,0)
GPGPU-Sim uArch: Shader 2 finished CTA #1 (74283,0), 5 CTAs running
GPGPU-Sim uArch: core:  2, cta: 1 initialized @(74284,0)
GPGPU-Sim uArch: Shader 3 finished CTA #5 (74322,0), 5 CTAs running
GPGPU-Sim uArch: core:  3, cta: 5 initialized @(74323,0)
GPGPU-Sim uArch: Shader 7 finished CTA #4 (74359,0), 5 CTAs running
GPGPU-Sim uArch: core:  7, cta: 4 initialized @(74360,0)
GPGPU-Sim uArch: Shader 4 finished CTA #0 (74380,0), 5 CTAs running
GPGPU-Sim uArch: core:  4, cta: 0 initialized @(74381,0)
GPGPU-Sim uArch: Shader 10 finished CTA #5 (74439,0), 5 CTAs running
GPGPU-Sim uArch: core: 10, cta: 5 initialized @(74440,0)
GPGPU-Sim uArch: Shader 5 finished CTA #4 (74536,0), 5 CTAs running
GPGPU-Sim uArch: core:  5, cta: 4 initialized @(74537,0)
GPGPU-Sim uArch: Shader 13 finished CTA #5 (74806,0), 5 CTAs running
GPGPU-Sim uArch: core: 13, cta: 5 initialized @(74807,0)
GPGPU-Sim uArch: Shader 9 finished CTA #5 (74926,0), 5 CTAs running
GPGPU-Sim uArch: core:  9, cta: 5 initialized @(74927,0)
GPGPU-Sim uArch: cycles simulated: 75000  inst.: 3004416 (ipc=40.1) sim_rate=49252 (inst/sec) elapsed = 0:0:01:01 / Tue Apr 16 16:56:29 2019
GPGPU-Sim uArch: Shader 8 finished CTA #5 (75360,0), 5 CTAs running
GPGPU-Sim uArch: core:  8, cta: 5 initialized @(75361,0)
GPGPU-Sim uArch: Shader 11 finished CTA #0 (75397,0), 5 CTAs running
GPGPU-Sim uArch: core: 11, cta: 0 initialized @(75398,0)
GPGPU-Sim PTX: 3100000 instructions simulated : ctaid=(2,23,0) tid=(15,13,0)
GPGPU-Sim uArch: Shader 10 finished CTA #0 (75535,0), 5 CTAs running
GPGPU-Sim uArch: core: 10, cta: 0 initialized @(75536,0)
GPGPU-Sim uArch: Shader 0 finished CTA #0 (75572,0), 5 CTAs running
GPGPU-Sim uArch: core:  0, cta: 0 initialized @(75573,0)
GPGPU-Sim uArch: Shader 10 finished CTA #1 (75990,0), 5 CTAs running
GPGPU-Sim uArch: core: 10, cta: 1 initialized @(75991,0)
GPGPU-Sim uArch: cycles simulated: 76000  inst.: 3034432 (ipc=39.9) sim_rate=48942 (inst/sec) elapsed = 0:0:01:02 / Tue Apr 16 16:56:30 2019
GPGPU-Sim uArch: Shader 3 finished CTA #0 (76582,0), 5 CTAs running
GPGPU-Sim uArch: core:  3, cta: 0 initialized @(76583,0)
GPGPU-Sim uArch: Shader 12 finished CTA #0 (76818,0), 5 CTAs running
GPGPU-Sim uArch: core: 12, cta: 0 initialized @(76819,0)
GPGPU-Sim uArch: cycles simulated: 77000  inst.: 3059840 (ipc=39.7) sim_rate=48568 (inst/sec) elapsed = 0:0:01:03 / Tue Apr 16 16:56:31 2019
GPGPU-Sim uArch: Shader 14 finished CTA #5 (77160,0), 5 CTAs running
GPGPU-Sim uArch: core: 14, cta: 5 initialized @(77161,0)
GPGPU-Sim uArch: Shader 13 finished CTA #0 (77222,0), 5 CTAs running
GPGPU-Sim uArch: core: 13, cta: 0 initialized @(77223,0)
GPGPU-Sim uArch: Shader 4 finished CTA #1 (77523,0), 5 CTAs running
GPGPU-Sim uArch: core:  4, cta: 1 initialized @(77524,0)
GPGPU-Sim PTX: 3200000 instructions simulated : ctaid=(9,20,0) tid=(15,15,0)
GPGPU-Sim uArch: Shader 9 finished CTA #0 (77623,0), 5 CTAs running
GPGPU-Sim uArch: core:  9, cta: 0 initialized @(77624,0)
GPGPU-Sim uArch: Shader 7 finished CTA #5 (77977,0), 5 CTAs running
GPGPU-Sim uArch: core:  7, cta: 5 initialized @(77978,0)
GPGPU-Sim uArch: cycles simulated: 78500  inst.: 3138240 (ipc=40.0) sim_rate=49035 (inst/sec) elapsed = 0:0:01:04 / Tue Apr 16 16:56:32 2019
GPGPU-Sim uArch: Shader 13 finished CTA #1 (78557,0), 5 CTAs running
GPGPU-Sim uArch: core: 13, cta: 1 initialized @(78558,0)
GPGPU-Sim uArch: Shader 6 finished CTA #5 (78578,0), 5 CTAs running
GPGPU-Sim uArch: core:  6, cta: 5 initialized @(78579,0)
GPGPU-Sim uArch: Shader 8 finished CTA #0 (79130,0), 5 CTAs running
GPGPU-Sim uArch: core:  8, cta: 0 initialized @(79131,0)
GPGPU-Sim uArch: cycles simulated: 79500  inst.: 3163552 (ipc=39.8) sim_rate=48670 (inst/sec) elapsed = 0:0:01:05 / Tue Apr 16 16:56:33 2019
GPGPU-Sim uArch: Shader 1 finished CTA #1 (79572,0), 5 CTAs running
GPGPU-Sim uArch: core:  1, cta: 1 initialized @(79573,0)
GPGPU-Sim uArch: Shader 10 finished CTA #2 (79637,0), 5 CTAs running
GPGPU-Sim uArch: core: 10, cta: 2 initialized @(79638,0)
GPGPU-Sim uArch: Shader 1 finished CTA #2 (79654,0), 5 CTAs running
GPGPU-Sim uArch: core:  1, cta: 2 initialized @(79655,0)
GPGPU-Sim uArch: Shader 14 finished CTA #0 (80066,0), 5 CTAs running
GPGPU-Sim uArch: core: 14, cta: 0 initialized @(80067,0)
GPGPU-Sim uArch: Shader 5 finished CTA #5 (80198,0), 5 CTAs running
GPGPU-Sim uArch: core:  5, cta: 5 initialized @(80199,0)
GPGPU-Sim uArch: Shader 12 finished CTA #1 (80313,0), 5 CTAs running
GPGPU-Sim uArch: core: 12, cta: 1 initialized @(80314,0)
GPGPU-Sim PTX: 3300000 instructions simulated : ctaid=(15,22,0) tid=(15,1,0)
GPGPU-Sim uArch: Shader 9 finished CTA #1 (80416,0), 5 CTAs running
GPGPU-Sim uArch: core:  9, cta: 1 initialized @(80417,0)
GPGPU-Sim uArch: Shader 14 finished CTA #1 (80544,0), 5 CTAs running
GPGPU-Sim uArch: core: 14, cta: 1 initialized @(80545,0)
GPGPU-Sim uArch: Shader 11 finished CTA #1 (80780,0), 5 CTAs running
GPGPU-Sim uArch: core: 11, cta: 1 initialized @(80781,0)
GPGPU-Sim uArch: Shader 11 finished CTA #2 (80885,0), 5 CTAs running
GPGPU-Sim uArch: core: 11, cta: 2 initialized @(80886,0)
GPGPU-Sim uArch: Shader 0 finished CTA #1 (80956,0), 5 CTAs running
GPGPU-Sim uArch: core:  0, cta: 1 initialized @(80957,0)
GPGPU-Sim uArch: cycles simulated: 81000  inst.: 3222528 (ipc=39.8) sim_rate=48826 (inst/sec) elapsed = 0:0:01:06 / Tue Apr 16 16:56:34 2019
GPGPU-Sim uArch: Shader 5 finished CTA #0 (81411,0), 5 CTAs running
GPGPU-Sim uArch: core:  5, cta: 0 initialized @(81412,0)
GPGPU-Sim uArch: cycles simulated: 82000  inst.: 3236000 (ipc=39.5) sim_rate=48298 (inst/sec) elapsed = 0:0:01:07 / Tue Apr 16 16:56:35 2019
GPGPU-Sim uArch: Shader 6 finished CTA #4 (83487,0), 5 CTAs running
GPGPU-Sim uArch: core:  6, cta: 4 initialized @(83488,0)
GPGPU-Sim uArch: cycles simulated: 83500  inst.: 3260064 (ipc=39.0) sim_rate=47942 (inst/sec) elapsed = 0:0:01:08 / Tue Apr 16 16:56:36 2019
GPGPU-Sim uArch: Shader 2 finished CTA #2 (83592,0), 5 CTAs running
GPGPU-Sim uArch: core:  2, cta: 2 initialized @(83593,0)
GPGPU-Sim uArch: Shader 2 finished CTA #4 (83690,0), 5 CTAs running
GPGPU-Sim uArch: core:  2, cta: 4 initialized @(83691,0)
GPGPU-Sim uArch: Shader 14 finished CTA #2 (83860,0), 5 CTAs running
GPGPU-Sim uArch: core: 14, cta: 2 initialized @(83861,0)
GPGPU-Sim uArch: Shader 7 finished CTA #0 (83928,0), 5 CTAs running
GPGPU-Sim uArch: core:  7, cta: 0 initialized @(83929,0)
GPGPU-Sim uArch: Shader 0 finished CTA #2 (84224,0), 5 CTAs running
GPGPU-Sim uArch: core:  0, cta: 2 initialized @(84225,0)
GPGPU-Sim PTX: 3400000 instructions simulated : ctaid=(14,23,0) tid=(15,1,0)
GPGPU-Sim uArch: Shader 1 finished CTA #3 (84405,0), 5 CTAs running
GPGPU-Sim uArch: core:  1, cta: 3 initialized @(84406,0)
GPGPU-Sim uArch: Shader 5 finished CTA #1 (84487,0), 5 CTAs running
GPGPU-Sim uArch: core:  5, cta: 1 initialized @(84488,0)
GPGPU-Sim uArch: cycles simulated: 84500  inst.: 3305664 (ipc=39.1) sim_rate=47908 (inst/sec) elapsed = 0:0:01:09 / Tue Apr 16 16:56:37 2019
GPGPU-Sim uArch: Shader 0 finished CTA #3 (84522,0), 5 CTAs running
GPGPU-Sim uArch: core:  0, cta: 3 initialized @(84523,0)
GPGPU-Sim uArch: Shader 8 finished CTA #1 (85103,0), 5 CTAs running
GPGPU-Sim uArch: core:  8, cta: 1 initialized @(85104,0)
GPGPU-Sim uArch: Shader 10 finished CTA #3 (85124,0), 5 CTAs running
GPGPU-Sim uArch: core: 10, cta: 3 initialized @(85125,0)
GPGPU-Sim uArch: Shader 3 finished CTA #1 (85553,0), 5 CTAs running
GPGPU-Sim uArch: core:  3, cta: 1 initialized @(85554,0)
GPGPU-Sim uArch: Shader 3 finished CTA #2 (85781,0), 5 CTAs running
GPGPU-Sim uArch: core:  3, cta: 2 initialized @(85782,0)
GPGPU-Sim uArch: cycles simulated: 86000  inst.: 3368096 (ipc=39.2) sim_rate=48115 (inst/sec) elapsed = 0:0:01:10 / Tue Apr 16 16:56:38 2019
GPGPU-Sim PTX: 3500000 instructions simulated : ctaid=(13,22,0) tid=(15,1,0)
GPGPU-Sim uArch: Shader 12 finished CTA #2 (86463,0), 5 CTAs running
GPGPU-Sim uArch: core: 12, cta: 2 initialized @(86464,0)
GPGPU-Sim uArch: Shader 6 finished CTA #0 (86559,0), 5 CTAs running
GPGPU-Sim uArch: core:  6, cta: 0 initialized @(86560,0)
GPGPU-Sim uArch: Shader 2 finished CTA #3 (86601,0), 5 CTAs running
GPGPU-Sim uArch: core:  2, cta: 3 initialized @(86602,0)
GPGPU-Sim uArch: Shader 1 finished CTA #4 (86776,0), 5 CTAs running
GPGPU-Sim uArch: core:  1, cta: 4 initialized @(86777,0)
GPGPU-Sim uArch: cycles simulated: 87000  inst.: 3423712 (ipc=39.4) sim_rate=48221 (inst/sec) elapsed = 0:0:01:11 / Tue Apr 16 16:56:39 2019
GPGPU-Sim uArch: Shader 11 finished CTA #3 (87245,0), 5 CTAs running
GPGPU-Sim uArch: core: 11, cta: 3 initialized @(87246,0)
GPGPU-Sim uArch: Shader 7 finished CTA #1 (87406,0), 5 CTAs running
[...]
dq_lat_table:0 	0 	0 	0 	0 	0 	0 	0 	0 	0 	0 	0 	0 	0 	0 	0 	0 	0 	0 	0 	0 	0 	0 	0 	0 	0 	0 	0 	0 	0 	0 	0 	
mf_lat_table:0 	0 	0 	0 	0 	0 	0 	68027 	407439 	664632 	296108 	5 	0 	0 	0 	0 	0 	0 	0 	0 	0 	0 	0 	0 	0 	0 	0 	0 	0 	0 	0 	0 	
icnt2mem_lat_table:0 	0 	0 	38633 	19841 	273703 	127390 	124018 	395828 	447036 	9852 	0 	0 	0 	0 	0 	0 	0 	0 	0 	0 	0 	0 	0 	
icnt2sh_lat_table:0 	0 	0 	98416 	105960 	46184 	5963 	40 	0 	0 	0 	532 	1099 	2738 	9684 	19723 	38656 	80467 	153928 	282234 	588275 	2312 	0 	0 	
mf_lat_pw_table:0 	0 	0 	0 	0 	0 	0 	1 	101 	3919 	179 	0 	0 	0 	0 	0 	0 	0 	0 	0 	0 	0 	0 	0 	0 	0 	0 	0 	0 	0 	0 	0 	
maximum concurrent accesses to same row:
dram[0]:        31        32        32        32        32        32        32        32        32        32        32        32        32        32        32        32 
dram[1]:        32        32        30        29        32        32        32        32        32        32        32        32        32        32        32        32 
dram[2]:        32        31        32        32        32        32        32        32        32        32        32        32        32        32        32        32 
dram[3]:        32        32        29        29        32        32        32        32        32        32        32        32        32        32        32        32 
dram[4]:        25        32        32        32        32        32        32        32        32        32        32        32        32        32        32        32 
dram[5]:        32        32        29        32        32        32        32        32        31        32        32        32        32        32        32        32 
maximum service time to same row:
dram[0]:     26380     29572     27055     29563     26543     29387     26451     29338     26305     27790     26519     27550     25306     30069     26117     30060 
dram[1]:     25625     41208     25604     41199     26605     46530     26400     46263     26256     35901     26275     25979     26105     35754     26791     43593 
dram[2]:     28981     25096     29567     33150     29386     26949     29340     26350     27791     26293     27553     27219     30072     26597     30063     24484 
dram[3]:     41262     26188     41253     25553     46533     26694     46281     26697     41272     27952     26889     26621     35750     26476     43596     26900 
dram[4]:     26399     29569     26519     29560     27063     29387     26469     29329     26331     27778     29448     28024     25524     30066     24503     30057 
dram[5]:     26179     41247     25473     41241     27583     46307     26704     46262     26713     39470     26667     27088     26107     36354     26670     43590 
average row accesses per activate:
dram[0]:  2.188230  2.195550  2.162784  2.188807  2.184735  2.206661  2.187458  2.204284  2.166620  2.183275  2.193046  2.221698  2.212512  2.210843  2.205787  2.218724 
dram[1]:  2.176697  2.186460  2.193493  2.197513  2.185547  2.183468  2.180257  2.196317  2.168434  2.191403  2.191200  2.187463  2.202528  2.212581  2.221500  2.184641 
dram[2]:  2.201113  2.192377  2.194825  2.176358  2.201706  2.188545  2.213309  2.187601  2.185432  2.159716  2.225866  2.195299  2.202397  2.209941  2.214565  2.194653 
dram[3]:  2.185441  2.177801  2.190594  2.190965  2.186009  2.193025  2.196373  2.181196  2.192213  2.171213  2.193912  2.181909  2.206591  2.218388  2.193669  2.213950 
dram[4]:  2.181050  2.201653  2.172909  2.186460  2.173484  2.213549  2.192521  2.212333  2.150159  2.189586  2.203198  2.226510  2.207217  2.211510  2.192982  2.221740 
dram[5]:  2.184555  2.188542  2.193459  2.192315  2.190427  2.192042  2.180907  2.203085  2.169101  2.188136  2.183187  2.192097  2.211011  2.224277  2.219180  2.192713 
average row locality = 2151736/980834 = 2.193782
number of total memory accesses made:
dram[0]:         0         0         0         0         0         0         0         0         0         0         0         0         0         0         0         0 
dram[1]:         0         0         0         0         0         0         0         0         0         0         0         0         0         0         0         0 
dram[2]:         0         0         0         0         0         0         0         0         0         0         0         0         0         0         0         0 
dram[3]:         0         0         0         0         0         0         0         0         0         0         0         0         0         0         0         0 
dram[4]:         0         0         0         0         0         0         0         0         0         0         0         0         0         0         0         0 
dram[5]:         0         0         0         0         0         0         0         0         0         0         0         0         0         0         0         0 
total accesses: 0
min_bank_accesses = 0!
min_chip_accesses = 0!
number of total read accesses:
dram[0]:     10783     10614     10639     10518     10770     10632     10728     10630     10842     10671     10336     10155      9972      9805      9956      9864 
dram[1]:     10911     10810     10815     10732     10994     10897     10981     10869     11072     10916     10483     10359     10000     10022     10043     10102 
dram[2]:     10642     10739     10541     10633     10666     10762     10629     10731     10698     10847     10234     10262      9818      9939      9865      9948 
dram[3]:     10838     10923     10719     10789     10859     10965     10865     11006     10942     11075     10401     10406     10014      9986     10058     10059 
dram[4]:     10720     10633     10657     10539     10827     10679     10751     10618     10827     10735     10272     10137      9962      9835      9971      9834 
dram[5]:     10924     10804     10786     10691     11015     10841     11015     10886     11076     10957     10405     10435     10021     10046     10025     10088 
total reads: 1010792
bank skew: 11076/9805 = 1.13
chip skew: 170015/166915 = 1.02
number of total write accesses:
dram[0]:     12270     12279     12200     12204     12244     12293     12225     12213     12239     12225     11612     11511     11142     11114     11160     11134 
dram[1]:     12273     12314     12243     12243     12293     12322     12254     12267     12243     12280     11578     11520     11087     11117     11139     11148 
dram[2]:     12287     12270     12193     12197     12300     12279     12188     12206     12225     12249     11555     11500     11129     11135     11118     11147 
dram[3]:     12308     12288     12245     12249     12328     12303     12265     12263     12256     12246     11582     11520     11145     11102     11146     11144 
dram[4]:     12253     12284     12202     12198     12288     12291     12231     12200     12227     12225     11500     11498     11139     11108     11154     11137 
dram[5]:     12300     12307     12219     12245     12324     12296     12264     12253     12244     12281     11488     11532     11103     11118     11126     11155 
total reads: 1140944
bank skew: 12328/11087 = 1.11
chip skew: 190390/189935 = 1.00
average mf latency per bank:
dram[0]:        475       464       481       472       481       467       484       472       483       471       476       469       477       475       480       475
dram[1]:        484       474       482       470       483       474       490       481       480       473       488       482       486       477       480       474
dram[2]:        465       474       473       480       467       479       472       482       471       479       471       474       477       477       475       479
dram[3]:        472       483       468       477       472       478       478       483       469       475       476       482       474       480       473       477
dram[4]:        480       463       486       471       484       465       485       468       484       467       477       463       480       471       483       472
dram[5]:        476       471       473       469       475       477       481       478       470       469       479       478       475       470       473       472
maximum mf latency per bank:
dram[0]:       1871      1827      1965      1781      1931      1643      2186      1675      2023      1672      1901      1741      1762      1642      1875      1914
dram[1]:       1744      1669      1900      1701      1772      1681      1892      1836      1921      1793      1871      1678      1851      1826      1843      1679
dram[2]:       1779      1794      1707      1962      1617      2153      1650      2029      1768      1854      1631      1807      1827      1828      1824      1831
dram[3]:       1630      1753      1685      1717      1642      1871      1689      1868      1798      1891      1719      1772      1858      1795      1713      1719
dram[4]:       1948      1819      1873      1649      2126      1637      2133      1714      1948      1693      1730      1786      1721      1829      1909      1945
dram[5]:       1726      1605      1748      1691      2023      1591      1904      1740      1742      1753      1758      1746      1753      2119      1667      1748

Number of Memory Banks Accessed per Memory Operation per Warp (from 0):
0	0	0	0	0	0	0	0	0	0	0	0	0	0	0	0	0	0	0	0	0	0	0	0	0	0	0	0	0	0	0	0	0	0	0	0	0	0	0	0	0	0	0	0	0	0	0	0	0	0	0	0	0	0	0	0	0	0	0	0	0	0	0	0	0	0	0	0	0	0	0	0	0	0	0	0	0	0	0	0	0	0	0	0	0	0	0	0	0	0	0	0	0	0	0	0	
Average # of Memory Banks Accessed per Memory Operation per Warp=-nan

position of mrq chosen
0	0	0	0	0	0	0	0	0	0	0	0	0	0	0	0	

average position of mrq chosen = -nan
Memory Partition 0: 
Cache L2_bank_000:
MSHR contents

Cache L2_bank_001:
MSHR contents

In Dram Latency Queue (total = 0): 
DRAM[0]: 16 bks, busW=4 BL=8 CL=12, tRRD=2 tCCD=6, tRCD=12 tRAS=28 tRP=12 tRC=40
n_cmd=2775543 n_nop=1915522 n_act=162625 n_pre=162609 n_req=356980 n_rd=333830 n_write=200957 bw_util=0.3854
n_activity=2289434 dram_eff=0.4672
bk0: 21566a 2068241i bk1: 21228a 2069893i bk2: 21278a 2051214i bk3: 21036a 2046826i bk4: 21540a 2038730i bk5: 21264a 2038365i bk6: 21456a 2030683i bk7: 21260a 2028207i bk8: 21684a 2056052i bk9: 21342a 2058948i bk10: 20672a 2085085i bk11: 20310a 2093731i bk12: 19944a 2098430i bk13: 19610a 2099611i bk14: 19912a 2089382i bk15: 19728a 2093868i 
dram_util_bins: 0 0 0 0 0 0 0 0 0 0
dram_eff_bins: 0 0 0 0 0 0 0 0 0 0
mrqq: max=16 avg=6.86859
Memory Partition 1: 
Cache L2_bank_002:
MSHR contents

Cache L2_bank_003:
MSHR contents

In Dram Latency Queue (total = 0): 
DRAM[1]: 16 bks, busW=4 BL=8 CL=12, tRRD=2 tCCD=6, tRCD=12 tRAS=28 tRP=12 tRC=40
n_cmd=2775543 n_nop=1905765 n_act=164471 n_pre=164455 n_req=360327 n_rd=340012 n_write=200840 bw_util=0.3897
n_activity=2310060 dram_eff=0.4683
bk0: 21822a 2061664i bk1: 21620a 2056649i bk2: 21630a 2046447i bk3: 21464a 2047332i bk4: 21988a 2029501i bk5: 21794a 2023943i bk6: 21962a 2015055i bk7: 21738a 2014424i bk8: 22144a 2053664i bk9: 21832a 2050385i bk10: 20966a 2074538i bk11: 20718a 2078359i bk12: 20000a 2096693i bk13: 20044a 2096195i bk14: 20086a 2091180i bk15: 20204a 2082429i 
dram_util_bins: 0 0 0 0 0 0 0 0 0 0
dram_eff_bins: 0 0 0 0 0 0 0 0 0 0
mrqq: max=16 avg=6.96071
Memory Partition 2: 
Cache L2_bank_004:
MSHR contents

Cache L2_bank_005:
MSHR contents

In Dram Latency Queue (total = 0): 
DRAM[2]: 16 bks, busW=4 BL=8 CL=12, tRRD=2 tCCD=6, tRCD=12 tRAS=28 tRP=12 tRC=40
n_cmd=2775543 n_nop=1915845 n_act=162532 n_pre=162516 n_req=356932 n_rd=333908 n_write=200742 bw_util=0.3853
n_activity=2287069 dram_eff=0.4675
bk0: 21284a 2064969i bk1: 21478a 2064499i bk2: 21082a 2051893i bk3: 21266a 2045920i bk4: 21332a 2037084i bk5: 21524a 2035015i bk6: 21258a 2032119i bk7: 21462a 2026384i bk8: 21396a 2062196i bk9: 21694a 2054564i bk10: 20468a 2088255i bk11: 20524a 2092295i bk12: 19636a 2098109i bk13: 19878a 2096778i bk14: 19730a 2096942i bk15: 19896a 2090736i 
dram_util_bins: 0 0 0 0 0 0 0 0 0 0
dram_eff_bins: 0 0 0 0 0 0 0 0 0 0
mrqq: max=16 avg=6.88369
Memory Partition 3: 
Cache L2_bank_006:
MSHR contents

Cache L2_bank_007:
MSHR contents

In Dram Latency Queue (total = 0): 
DRAM[3]: 16 bks, busW=4 BL=8 CL=12, tRRD=2 tCCD=6, tRCD=12 tRAS=28 tRP=12 tRC=40
n_cmd=2775543 n_nop=1906075 n_act=164393 n_pre=164377 n_req=360295 n_rd=339810 n_write=200888 bw_util=0.3896
n_activity=2309824 dram_eff=0.4682
bk0: 21676a 2057766i bk1: 21846a 2056093i bk2: 21438a 2044910i bk3: 21578a 2045840i bk4: 21718a 2027429i bk5: 21930a 2027013i bk6: 21730a 2019933i bk7: 22012a 2013333i bk8: 21884a 2054704i bk9: 22150a 2051477i bk10: 20802a 2074319i bk11: 20812a 2079500i bk12: 20028a 2090598i bk13: 19972a 2096305i bk14: 20116a 2086574i bk15: 20118a 2086549i 
dram_util_bins: 0 0 0 0 0 0 0 0 0 0
dram_eff_bins: 0 0 0 0 0 0 0 0 0 0
mrqq: max=16 avg=6.94321
Memory Partition 4: 
Cache L2_bank_008:
MSHR contents

Cache L2_bank_009:
MSHR contents

In Dram Latency Queue (total = 0): 
DRAM[4]: 16 bks, busW=4 BL=8 CL=12, tRRD=2 tCCD=6, tRCD=12 tRAS=28 tRP=12 tRC=40
n_cmd=2775543 n_nop=1915673 n_act=162578 n_pre=162562 n_req=356932 n_rd=333994 n_write=200736 bw_util=0.3853
n_activity=2287713 dram_eff=0.4675
bk0: 21440a 2068124i bk1: 21266a 2066583i bk2: 21314a 2048833i bk3: 21078a 2049395i bk4: 21654a 2031772i bk5: 21358a 2034164i bk6: 21502a 2028016i bk7: 21236a 2027798i bk8: 21654a 2056207i bk9: 21470a 2060004i bk10: 20544a 2089836i bk11: 20274a 2093859i bk12: 19924a 2099074i bk13: 19670a 2101945i bk14: 19942a 2088240i bk15: 19668a 2093476i 
dram_util_bins: 0 0 0 0 0 0 0 0 0 0
dram_eff_bins: 0 0 0 0 0 0 0 0 0 0
mrqq: max=16 avg=6.8636
Memory Partition 5: 
Cache L2_bank_010:
MSHR contents

Cache L2_bank_011:
MSHR contents

In Dram Latency Queue (total = 0): 
DRAM[5]: 16 bks, busW=4 BL=8 CL=12, tRRD=2 tCCD=6, tRCD=12 tRAS=28 tRP=12 tRC=40
n_cmd=2775543 n_nop=1906226 n_act=164236 n_pre=164220 n_req=360270 n_rd=340030 n_write=200831 bw_util=0.3897
n_activity=2310012 dram_eff=0.4683
bk0: 21848a 2061378i bk1: 21608a 2056802i bk2: 21572a 2051137i bk3: 21382a 2047489i bk4: 22030a 2025861i bk5: 21682a 2029502i bk6: 22030a 2015406i bk7: 21772a 2015308i bk8: 22152a 2054100i bk9: 21914a 2056627i bk10: 20810a 2080417i bk11: 20870a 2074787i bk12: 20042a 2094724i bk13: 20092a 2097061i bk14: 20050a 2090674i bk15: 20176a 2082036i 
dram_util_bins: 0 0 0 0 0 0 0 0 0 0
dram_eff_bins: 0 0 0 0 0 0 0 0 0 0
mrqq: max=16 avg=6.92049

========= L2 cache stats =========
L2_cache_bank[0]: Access = 119835, Miss = 84026, Miss_rate = 0.701, Pending_hits = 18114, Reservation_fails = 432157
L2_cache_bank[1]: Access = 119644, Miss = 82889, Miss_rate = 0.693, Pending_hits = 19068, Reservation_fails = 409962
L2_cache_bank[2]: Access = 119777, Miss = 85299, Miss_rate = 0.712, Pending_hits = 17085, Reservation_fails = 445534
L2_cache_bank[3]: Access = 119579, Miss = 84707, Miss_rate = 0.708, Pending_hits = 17690, Reservation_fails = 435472
L2_cache_bank[4]: Access = 119753, Miss = 83093, Miss_rate = 0.694, Pending_hits = 19003, Reservation_fails = 410980
L2_cache_bank[5]: Access = 119737, Miss = 83861, Miss_rate = 0.700, Pending_hits = 18157, Reservation_fails = 428151
L2_cache_bank[6]: Access = 119652, Miss = 84696, Miss_rate = 0.708, Pending_hits = 17761, Reservation_fails = 428679
L2_cache_bank[7]: Access = 119691, Miss = 85209, Miss_rate = 0.712, Pending_hits = 17248, Reservation_fails = 441656
L2_cache_bank[8]: Access = 119721, Miss = 83987, Miss_rate = 0.702, Pending_hits = 18090, Reservation_fails = 435696
L2_cache_bank[9]: Access = 119659, Miss = 83010, Miss_rate = 0.694, Pending_hits = 19009, Reservation_fails = 408832
L2_cache_bank[10]: Access = 119668, Miss = 85267, Miss_rate = 0.713, Pending_hits = 17062, Reservation_fails = 436727
L2_cache_bank[11]: Access = 119585, Miss = 84748, Miss_rate = 0.709, Pending_hits = 17565, Reservation_fails = 429059
L2_total_cache_accesses = 1436301
L2_total_cache_misses = 1010792
L2_total_cache_miss_rate = 0.7037
L2_total_cache_pending_hits = 215852
L2_total_cache_reservation_fails = 5142905
L2_total_cache_breakdown:
	L2_cache_stats_breakdown[GLOBAL_ACC_R][HIT] = 106826
	L2_cache_stats_breakdown[GLOBAL_ACC_R][HIT_RESERVED] = 16210
	L2_cache_stats_breakdown[GLOBAL_ACC_R][MISS] = 133512
	L2_cache_stats_breakdown[GLOBAL_ACC_R][RESERVATION_FAIL] = 31164
	L2_cache_stats_breakdown[CONST_ACC_R][HIT] = 11
	L2_cache_stats_breakdown[CONST_ACC_R][HIT_RESERVED] = 3
	L2_cache_stats_breakdown[CONST_ACC_R][MISS] = 1
	L2_cache_stats_breakdown[CONST_ACC_R][RESERVATION_FAIL] = 93
	L2_cache_stats_breakdown[GLOBAL_ACC_W][HIT] = 102754
	L2_cache_stats_breakdown[GLOBAL_ACC_W][HIT_RESERVED] = 199621
	L2_cache_stats_breakdown[GLOBAL_ACC_W][MISS] = 877273
	L2_cache_stats_breakdown[GLOBAL_ACC_W][RESERVATION_FAIL] = 5111019
	L2_cache_stats_breakdown[INST_ACC_R][HIT] = 66
	L2_cache_stats_breakdown[INST_ACC_R][HIT_RESERVED] = 18
	L2_cache_stats_breakdown[INST_ACC_R][MISS] = 6
	L2_cache_stats_breakdown[INST_ACC_R][RESERVATION_FAIL] = 629
L2_cache_data_port_util = 0.022
L2_cache_fill_port_util = 0.160

icnt_total_pkts_mem_to_simt=2462883
icnt_total_pkts_simt_to_mem=2747021
LD_mem_lat_dist  0 0 0 0 0 0 0 0 0 0 0 0 0 0 0 0 0 0 0 0 0 0 0 0 0 0 0
ST_mem_lat_dist  0 0 0 0 0 0 0 0 0 0 0 0 0 0 0 0 0 0 0 0 0 0 0 0 0 0 0
----------------------------Interconnect-DETAILS--------------------------------
Class 0:
Packet latency average = 75.2881
	minimum = 6
	maximum = 949
Network latency average = 45.4363
	minimum = 6
	maximum = 778
Slowest packet = 2614619
Flit latency average = 37.4518
	minimum = 6
	maximum = 778
Slowest flit = 4774314
Fragmentation average = 0.386924
	minimum = 0
	maximum = 394
Injected packet rate average = 0.0587694
	minimum = 0.049721 (at node 0)
	maximum = 0.0661807 (at node 17)
Accepted packet rate average = 0.0587694
	minimum = 0.049721 (at node 0)
	maximum = 0.0661807 (at node 17)
Injected flit rate average = 0.14667
	minimum = 0.0995397 (at node 0)
	maximum = 0.197565 (at node 24)
Accepted flit rate average= 0.14667
	minimum = 0.132691 (at node 18)
	maximum = 0.17417 (at node 7)
Injected packet length average = 2.49569
Accepted packet length average = 2.49569
Total in-flight flits = 0 (0 measured)
====== Overall Traffic Statistics ======
====== Traffic class 0 ======
Packet latency average = 90.1889 (4 samples)
	minimum = 6 (4 samples)
	maximum = 1139.5 (4 samples)
Network latency average = 51.496 (4 samples)
	minimum = 6 (4 samples)
	maximum = 904.5 (4 samples)
Flit latency average = 50.3313 (4 samples)
	minimum = 6 (4 samples)
	maximum = 904.5 (4 samples)
Fragmentation average = 0.283546 (4 samples)
	minimum = 0 (4 samples)
	maximum = 475 (4 samples)
Injected packet rate average = 0.0539362 (4 samples)
	minimum = 0.0462666 (4 samples)
	maximum = 0.0607856 (4 samples)
Accepted packet rate average = 0.0539362 (4 samples)
	minimum = 0.0462666 (4 samples)
	maximum = 0.0607856 (4 samples)
Injected flit rate average = 0.114173 (4 samples)
	minimum = 0.0897476 (4 samples)
	maximum = 0.143104 (4 samples)
Accepted flit rate average = 0.114173 (4 samples)
	minimum = 0.0968882 (4 samples)
	maximum = 0.137656 (4 samples)
Injected packet size average = 2.11681 (4 samples)
Accepted packet size average = 2.11681 (4 samples)
Hops average = 1 (4 samples)
----------------------------END-of-Interconnect-DETAILS-------------------------


gpgpu_simulation_time = 0 days, 0 hrs, 33 min, 15 sec (1995 sec)
gpgpu_simulation_rate = 96710 (inst/sec)
gpgpu_simulation_rate = 1053 (cycle/sec)
GPGPU-Sim: synchronize waiting for inactive GPU simulation
GPGPU-Sim API: Stream Manager State
GPGPU-Sim: detected inactive GPU simulation thread
Naive transpose average time:     704342.312 ms
Optimized transpose average time: 288594.156 ms

Test PASSED
GPGPU-Sim: exit_simulation called
GPGPU-Sim: simulation thread signaled exit

Press ENTER to exit...
