

        *** GPGPU-Sim Simulator Version 3.2.2  [build 0] ***


GPGPU-Sim PTX: simulation mode 0 (can change with PTX_SIM_MODE_FUNC environment variable:
               1=functional simulation only, 0=detailed performance simulator)
GPGPU-Sim: Configuration options:

-network_mode                           1 # Interconnection network mode
-inter_config_file   config_fermi_islip.icnt # Interconnection network config file
-gpgpu_ptx_use_cuobjdump                    1 # Use cuobjdump to extract ptx and sass from binaries
-gpgpu_experimental_lib_support                    0 # Try to extract code from cuda libraries [Broken because of unknown cudaGetExportTable]
-gpgpu_ptx_convert_to_ptxplus                    0 # Convert SASS (native ISA) to ptxplus and run ptxplus
-gpgpu_ptx_force_max_capability                   20 # Force maximum compute capability
-gpgpu_ptx_inst_debug_to_file                    0 # Dump executed instructions' debug information to file
-gpgpu_ptx_inst_debug_file       inst_debug.txt # Executed instructions' debug output file
-gpgpu_ptx_inst_debug_thread_uid                    1 # Thread UID for executed instructions' debug output
-gpgpu_simd_model                       1 # 1 = post-dominator
-gpgpu_shader_core_pipeline              1536:32 # shader core pipeline config, i.e., {<nthread>:<warpsize>}
-gpgpu_tex_cache:l1  4:128:24,L:R:m:N:L,F:128:4,128:2 # per-shader L1 texture cache  (READ-ONLY) config  {<nsets>:<bsize>:<assoc>,<rep>:<wr>:<alloc>:<wr_alloc>,<mshr>:<N>:<merge>,<mq>:<rf>}
-gpgpu_const_cache:l1 64:64:2,L:R:f:N:L,A:2:32,4 # per-shader L1 constant memory cache  (READ-ONLY) config  {<nsets>:<bsize>:<assoc>,<rep>:<wr>:<alloc>:<wr_alloc>,<mshr>:<N>:<merge>,<mq>} 
-gpgpu_cache:il1     4:128:4,L:R:f:N:L,A:2:32,4 # shader L1 instruction cache config  {<nsets>:<bsize>:<assoc>,<rep>:<wr>:<alloc>:<wr_alloc>,<mshr>:<N>:<merge>,<mq>} 
-gpgpu_cache:dl1     32:128:4,L:L:m:N:H,A:32:8,8 # per-shader L1 data cache config  {<nsets>:<bsize>:<assoc>,<rep>:<wr>:<alloc>:<wr_alloc>,<mshr>:<N>:<merge>,<mq> | none}
-gpgpu_cache:dl1PrefL1                 none # per-shader L1 data cache config  {<nsets>:<bsize>:<assoc>,<rep>:<wr>:<alloc>:<wr_alloc>,<mshr>:<N>:<merge>,<mq> | none}
-gpgpu_cache:dl1PreShared                 none # per-shader L1 data cache config  {<nsets>:<bsize>:<assoc>,<rep>:<wr>:<alloc>:<wr_alloc>,<mshr>:<N>:<merge>,<mq> | none}
-gmem_skip_L1D                          0 # global memory access skip L1D cache (implements -Xptxas -dlcm=cg, default=no skip)
-gpgpu_perfect_mem                      0 # enable perfect memory mode (no cache miss)
-n_regfile_gating_group                    4 # group of lanes that should be read/written together)
-gpgpu_clock_gated_reg_file                    0 # enable clock gated reg file for power calculations
-gpgpu_clock_gated_lanes                    0 # enable clock gated lanes for power calculations
-gpgpu_shader_registers                32768 # Number of registers per shader core. Limits number of concurrent CTAs. (default 8192)
-gpgpu_shader_cta                       8 # Maximum number of concurrent CTAs in shader (default 8)
-gpgpu_num_cta_barriers                   16 # Maximum number of named barriers per CTA (default 16)
-gpgpu_n_clusters                      15 # number of processing clusters
-gpgpu_n_cores_per_cluster                    1 # number of simd cores per cluster
-gpgpu_n_cluster_ejection_buffer_size                    8 # number of packets in ejection buffer
-gpgpu_n_ldst_response_buffer_size                    2 # number of response packets in ld/st unit ejection buffer
-gpgpu_shmem_size                   16384 # Size of shared memory per shader core (default 16kB)
-gpgpu_shmem_size                   49152 # Size of shared memory per shader core (default 16kB)
-gpgpu_shmem_size_PrefL1                16384 # Size of shared memory per shader core (default 16kB)
-gpgpu_shmem_size_PrefShared                16384 # Size of shared memory per shader core (default 16kB)
-gpgpu_shmem_num_banks                   32 # Number of banks in the shared memory in each shader core (default 16)
-gpgpu_shmem_limited_broadcast                    0 # Limit shared memory to do one broadcast per cycle (default on)
-gpgpu_shmem_warp_parts                    1 # Number of portions a warp is divided into for shared memory bank conflict check 
-gpgpu_warpdistro_shader                   -1 # Specify which shader core to collect the warp size distribution from
-gpgpu_warp_issue_shader                    0 # Specify which shader core to collect the warp issue distribution from
-gpgpu_local_mem_map                    1 # Mapping from local memory space address to simulated GPU physical address space (default = enabled)
-gpgpu_num_reg_banks                   16 # Number of register banks (default = 8)
-gpgpu_reg_bank_use_warp_id                    0 # Use warp ID in mapping registers to banks (default = off)
-gpgpu_operand_collector_num_units_sp                    6 # number of collector units (default = 4)
-gpgpu_operand_collector_num_units_sfu                    8 # number of collector units (default = 4)
-gpgpu_operand_collector_num_units_mem                    2 # number of collector units (default = 2)
-gpgpu_operand_collector_num_units_gen                    0 # number of collector units (default = 0)
-gpgpu_operand_collector_num_in_ports_sp                    2 # number of collector unit in ports (default = 1)
-gpgpu_operand_collector_num_in_ports_sfu                    1 # number of collector unit in ports (default = 1)
-gpgpu_operand_collector_num_in_ports_mem                    1 # number of collector unit in ports (default = 1)
-gpgpu_operand_collector_num_in_ports_gen                    0 # number of collector unit in ports (default = 0)
-gpgpu_operand_collector_num_out_ports_sp                    2 # number of collector unit in ports (default = 1)
-gpgpu_operand_collector_num_out_ports_sfu                    1 # number of collector unit in ports (default = 1)
-gpgpu_operand_collector_num_out_ports_mem                    1 # number of collector unit in ports (default = 1)
-gpgpu_operand_collector_num_out_ports_gen                    0 # number of collector unit in ports (default = 0)
-gpgpu_coalesce_arch                   13 # Coalescing arch (default = 13, anything else is off for now)
-gpgpu_num_sched_per_core                    2 # Number of warp schedulers per core
-gpgpu_max_insn_issue_per_warp                    1 # Max number of instructions that can be issued per warp in one cycle by scheduler
-gpgpu_simt_core_sim_order                    1 # Select the simulation order of cores in a cluster (0=Fix, 1=Round-Robin)
-gpgpu_pipeline_widths        2,1,1,2,1,1,2 # Pipeline widths ID_OC_SP,ID_OC_SFU,ID_OC_MEM,OC_EX_SP,OC_EX_SFU,OC_EX_MEM,EX_WB
-gpgpu_num_sp_units                     2 # Number of SP units (default=1)
-gpgpu_num_sfu_units                    1 # Number of SF units (default=1)
-gpgpu_num_mem_units                    1 # Number if ldst units (default=1) WARNING: not hooked up to anything
-gpgpu_scheduler                      gto # Scheduler configuration: < lrr | gto | two_level_active > If two_level_active:<num_active_warps>:<inner_prioritization>:<outer_prioritization>For complete list of prioritization values see shader.h enum scheduler_prioritization_typeDefault: gto
-gpgpu_dram_scheduler                    1 # 0 = fifo, 1 = FR-FCFS (defaul)
-gpgpu_dram_partition_queues              8:8:8:8 # i2$:$2d:d2$:$2i
-l2_ideal                               0 # Use a ideal L2 cache that always hit
-gpgpu_cache:dl2     64:128:8,L:B:m:W:L,A:32:4,4:0,32 # unified banked L2 data cache config  {<nsets>:<bsize>:<assoc>,<rep>:<wr>:<alloc>:<wr_alloc>,<mshr>:<N>:<merge>,<mq>}
-gpgpu_cache:dl2_texture_only                    0 # L2 cache used for texture only
-gpgpu_n_mem                            6 # number of memory modules (e.g. memory controllers) in gpu
-gpgpu_n_sub_partition_per_mchannel                    2 # number of memory subpartition in each memory module
-gpgpu_n_mem_per_ctrlr                    2 # number of memory chips per memory controller
-gpgpu_memlatency_stat                   14 # track and display latency statistics 0x2 enables MC, 0x4 enables queue logs
-gpgpu_frfcfs_dram_sched_queue_size                   16 # 0 = unlimited (default); # entries per chip
-gpgpu_dram_return_queue_size                  116 # 0 = unlimited (default); # entries per chip
-gpgpu_dram_buswidth                    4 # default = 4 bytes (8 bytes per cycle at DDR)
-gpgpu_dram_burst_length                    8 # Burst length of each DRAM request (default = 4 data bus cycle)
-dram_data_command_freq_ratio                    4 # Frequency ratio between DRAM data bus and command bus (default = 2 times, i.e. DDR)
-gpgpu_dram_timing_opt nbk=16:CCD=2:RRD=6:RCD=12:RAS=28:RP=12:RC=40: CL=12:WL=4:CDLR=5:WR=12:nbkgrp=4:CCDL=3:RTPL=2 # DRAM timing parameters = {nbk:tCCD:tRRD:tRCD:tRAS:tRP:tRC:CL:WL:tCDLR:tWR:nbkgrp:tCCDL:tRTPL}
-rop_latency                          120 # ROP queue latency (default 85)
-dram_latency                         100 # DRAM latency (default 30)
-gpgpu_mem_addr_mapping dramid@8;00000000.00000000.00000000.00000000.0000RRRR.RRRRRRRR.BBBCCCCB.CCSSSSSS # mapping memory address to dram model {dramid@<start bit>;<memory address map>}
-gpgpu_mem_addr_test                    0 # run sweep test to check address mapping for aliased address
-gpgpu_mem_address_mask                    1 # 0 = old addressing mask, 1 = new addressing mask, 2 = new add. mask + flipped bank sel and chip sel bits
-gpuwattch_xml_file  gpuwattch_gtx480.xml # GPUWattch XML file
-power_simulation_enabled                    1 # Turn on power simulator (1=On, 0=Off)
-power_per_cycle_dump                    0 # Dump detailed power output each cycle
-power_trace_enabled                    0 # produce a file for the power trace (1=On, 0=Off)
-power_trace_zlevel                     6 # Compression level of the power trace output log (0=no comp, 9=highest)
-steady_power_levels_enabled                    0 # produce a file for the steady power levels (1=On, 0=Off)
-steady_state_definition                  8:4 # allowed deviation:number of samples
-gpgpu_max_cycle                        0 # terminates gpu simulation early (0 = no limit)
-gpgpu_max_insn                         0 # terminates gpu simulation early (0 = no limit)
-gpgpu_max_cta                          0 # terminates gpu simulation early (0 = no limit)
-gpgpu_runtime_stat                   500 # display runtime statistics such as dram utilization {<freq>:<flag>}
-liveness_message_freq                    1 # Minimum number of seconds between simulation liveness messages (0 = always print)
-gpgpu_flush_l1_cache                    0 # Flush L1 cache at the end of each kernel call
-gpgpu_flush_l2_cache                    0 # Flush L2 cache at the end of each kernel call
-gpgpu_deadlock_detect                    1 # Stop the simulation at deadlock (1=on (default), 0=off)
-gpgpu_ptx_instruction_classification                    0 # if enabled will classify ptx instruction types per kernel (Max 255 kernels now)
-gpgpu_ptx_sim_mode                     0 # Select between Performance (default) or Functional simulation (1)
-gpgpu_clock_domains 700.0:700.0:700.0:924.0 # Clock Domain Frequencies in MhZ {<Core Clock>:<ICNT Clock>:<L2 Clock>:<DRAM Clock>}
-gpgpu_max_concurrent_kernel                    8 # maximum kernels that can run concurrently on GPU
-gpgpu_cflog_interval                    0 # Interval between each snapshot in control flow logger
-visualizer_enabled                     0 # Turn on visualizer output (1=On, 0=Off)
-visualizer_outputfile                 NULL # Specifies the output log file for visualizer
-visualizer_zlevel                      6 # Compression level of the visualizer output log (0=no comp, 9=highest)
-trace_enabled                          0 # Turn on traces
-trace_components                    none # comma seperated list of traces to enable. Complete list found in trace_streams.tup. Default none
-trace_sampling_core                    0 # The core which is printed using CORE_DPRINTF. Default 0
-trace_sampling_memory_partition                   -1 # The memory partition which is printed using MEMPART_DPRINTF. Default -1 (i.e. all)
-enable_ptx_file_line_stats                    1 # Turn on PTX source line statistic profiling. (1 = On)
-ptx_line_stats_filename gpgpu_inst_stats.txt # Output file for PTX source line statistics.
-save_embedded_ptx                      0 # saves ptx files embedded in binary as <n>.ptx
-keep                                   0 # keep intermediate files created by GPGPU-Sim when interfacing with external programs
-gpgpu_ptx_save_converted_ptxplus                    0 # Saved converted ptxplus to a file
-ptx_opcode_latency_int         4,13,4,5,145 # Opcode latencies for integers <ADD,MAX,MUL,MAD,DIV>Default 1,1,19,25,145
-ptx_opcode_latency_fp          4,13,4,5,39 # Opcode latencies for single precision floating points <ADD,MAX,MUL,MAD,DIV>Default 1,1,1,1,30
-ptx_opcode_latency_dp         8,19,8,8,330 # Opcode latencies for double precision floating points <ADD,MAX,MUL,MAD,DIV>Default 8,8,8,8,335
-ptx_opcode_initiation_int            1,2,2,1,8 # Opcode initiation intervals for integers <ADD,MAX,MUL,MAD,DIV>Default 1,1,4,4,32
-ptx_opcode_initiation_fp            1,2,1,1,4 # Opcode initiation intervals for single precision floating points <ADD,MAX,MUL,MAD,DIV>Default 1,1,1,1,5
-ptx_opcode_initiation_dp         8,16,8,8,130 # Opcode initiation intervals for double precision floating points <ADD,MAX,MUL,MAD,DIV>Default 8,8,8,8,130
DRAM Timing Options:
nbk                                    16 # number of banks
CCD                                     2 # column to column delay
RRD                                     6 # minimal delay between activation of rows in different banks
RCD                                    12 # row to column delay
RAS                                    28 # time needed to activate row
RP                                     12 # time needed to precharge (deactivate) row
RC                                     40 # row cycle time
CDLR                                    5 # switching from write to read (changes tWTR)
WR                                     12 # last data-in to row precharge
CL                                     12 # CAS latency
WL                                      4 # Write latency
nbkgrp                                  4 # number of bank groups
CCDL                                    3 # column to column delay between accesses to different bank groups
RTPL                                    2 # read to precharge delay between accesses to different bank groups
Total number of memory sub partition = 12
addr_dec_mask[CHIP]  = 0000000000000000 	high:64 low:0
addr_dec_mask[BK]    = 000000000000e100 	high:16 low:8
addr_dec_mask[ROW]   = 000000000fff0000 	high:28 low:16
addr_dec_mask[COL]   = 0000000000001eff 	high:13 low:0
addr_dec_mask[BURST] = 000000000000003f 	high:6 low:0
sub_partition_id_mask = 0000000000000100
GPGPU-Sim uArch: clock freqs: 700000000.000000:700000000.000000:700000000.000000:924000000.000000
GPGPU-Sim uArch: clock periods: 0.00000000142857142857:0.00000000142857142857:0.00000000142857142857:0.00000000108225108225
*** Initializing Memory Statistics ***
GPGPU-Sim uArch: interconnect node map (shaderID+MemID to icntID)
GPGPU-Sim uArch: Memory nodes ID start from index: 15
GPGPU-Sim uArch:    0   1   2   3   4
GPGPU-Sim uArch:    5   6   7   8   9
GPGPU-Sim uArch:   10  11  12  13  14
GPGPU-Sim uArch:   15  16  17  18  19
GPGPU-Sim uArch:   20  21  22  23  24
GPGPU-Sim uArch:   25  26
GPGPU-Sim uArch: interconnect node reverse map (icntID to shaderID+MemID)
GPGPU-Sim uArch: Memory nodes start from ID: 15
GPGPU-Sim uArch:    0   1   2   3   4
GPGPU-Sim uArch:    5   6   7   8   9
GPGPU-Sim uArch:   10  11  12  13  14
GPGPU-Sim uArch:   15  16  17  18  19
GPGPU-Sim uArch:   20  21  22  23  24
GPGPU-Sim uArch:   25  26
db8fd71b22e5f9e87a0df9a155b78fdf  /home/scratch/adwait/applications/benchmarks/CUDA/KMN/gpgpu_ptx_sim__KMN
GPGPU-Sim uArch: performance model initialization complete.
GPGPU-Sim PTX: __cudaRegisterFatBinary, fat_cubin_handle = 1, filename=kmeans_cuda.cu
self exe links to: /home/scratch/adwait/applications/benchmarks/CUDA/KMN/gpgpu_ptx_sim__KMN
Running md5sum using "md5sum /home/scratch/adwait/applications/benchmarks/CUDA/KMN/gpgpu_ptx_sim__KMN "
Running cuobjdump using "$CUDA_INSTALL_PATH/bin/cuobjdump -ptx -elf -sass /home/scratch/adwait/applications/benchmarks/CUDA/KMN/gpgpu_ptx_sim__KMN > _cuobjdump_complete_output_q6S1oo"
Parsing file _cuobjdump_complete_output_q6S1oo
######### cuobjdump parser ########
## Adding new section ELF
Adding arch: sm_20
Adding identifier: kmeans_cuda.cu
## Adding new section PTX
Adding ptx filename: _cuobjdump_1.ptx
Adding arch: sm_20
Adding identifier: kmeans_cuda.cu
Done parsing!!!
GPGPU-Sim PTX: __cudaRegisterFunction _Z11kmeansPointPfiiiPiS_S_S0_ : hostFun 0x0x402c28, fat_cubin_handle = 1
GPGPU-Sim PTX: instruction assembly for function '_Z14invert_mappingPfS_ii'...   done.
GPGPU-Sim PTX: finding reconvergence points for '_Z14invert_mappingPfS_ii'...
GPGPU-Sim PTX: Finding dominators for '_Z14invert_mappingPfS_ii'...
GPGPU-Sim PTX: Finding immediate dominators for '_Z14invert_mappingPfS_ii'...
GPGPU-Sim PTX: Finding postdominators for '_Z14invert_mappingPfS_ii'...
GPGPU-Sim PTX: Finding immediate postdominators for '_Z14invert_mappingPfS_ii'...
GPGPU-Sim PTX: pre-decoding instructions for '_Z14invert_mappingPfS_ii'...
GPGPU-Sim PTX: reconvergence points for _Z14invert_mappingPfS_ii...
GPGPU-Sim PTX:  1 (potential) branch divergence @  PC=0x038 (_1.ptx:70) @%p1 bra $Lt_0_2050;
GPGPU-Sim PTX:    immediate post dominator      @  PC=0x110 (_1.ptx:103) exit;
GPGPU-Sim PTX:  2 (potential) branch divergence @  PC=0x058 (_1.ptx:74) @%p2 bra $Lt_0_2562;
GPGPU-Sim PTX:    immediate post dominator      @  PC=0x110 (_1.ptx:103) exit;
GPGPU-Sim PTX:  3 (potential) branch divergence @  PC=0x108 (_1.ptx:99) @%p3 bra $Lt_0_3074;
GPGPU-Sim PTX:    immediate post dominator      @  PC=0x110 (_1.ptx:103) exit;
GPGPU-Sim PTX: ... end of reconvergence points for _Z14invert_mappingPfS_ii
GPGPU-Sim PTX: ... done pre-decoding instructions for '_Z14invert_mappingPfS_ii'.
GPGPU-Sim PTX: instruction assembly for function '_Z11kmeansPointPfiiiPiS_S_S0_'...   done.
GPGPU-Sim PTX: finding reconvergence points for '_Z11kmeansPointPfiiiPiS_S_S0_'...
GPGPU-Sim PTX: Finding dominators for '_Z11kmeansPointPfiiiPiS_S_S0_'...
GPGPU-Sim PTX: Finding immediate dominators for '_Z11kmeansPointPfiiiPiS_S_S0_'...
GPGPU-Sim PTX: Finding postdominators for '_Z11kmeansPointPfiiiPiS_S_S0_'...
GPGPU-Sim PTX: Finding immediate postdominators for '_Z11kmeansPointPfiiiPiS_S_S0_'...
GPGPU-Sim PTX: pre-decoding instructions for '_Z11kmeansPointPfiiiPiS_S_S0_'...
GPGPU-Sim PTX: reconvergence points for _Z11kmeansPointPfiiiPiS_S_S0_...
GPGPU-Sim PTX:  1 (potential) branch divergence @  PC=0x180 (_1.ptx:136) @!%p1 bra $Lt_1_4866;
GPGPU-Sim PTX:    immediate post dominator      @  PC=0x320 (_1.ptx:202) @!%p1 bra $Lt_1_7682;
GPGPU-Sim PTX:  2 (potential) branch divergence @  PC=0x1a0 (_1.ptx:140) @%p2 bra $Lt_1_8194;
GPGPU-Sim PTX:    immediate post dominator      @  PC=0x320 (_1.ptx:202) @!%p1 bra $Lt_1_7682;
GPGPU-Sim PTX:  3 (potential) branch divergence @  PC=0x1e8 (_1.ptx:151) @!%p3 bra $Lt_1_8450;
GPGPU-Sim PTX:    immediate post dominator      @  PC=0x2c8 (_1.ptx:185) setp.lt.f32 %p5, %f2, %f1;
GPGPU-Sim PTX:  4 (potential) branch divergence @  PC=0x2b0 (_1.ptx:180) @%p4 bra $Lt_1_6402;
GPGPU-Sim PTX:    immediate post dominator      @  PC=0x2b8 (_1.ptx:181) bra.uni $Lt_1_5890;
GPGPU-Sim PTX:  5 (potential) branch divergence @  PC=0x2b8 (_1.ptx:181) bra.uni $Lt_1_5890;
GPGPU-Sim PTX:    immediate post dominator      @  PC=0x2c8 (_1.ptx:185) setp.lt.f32 %p5, %f2, %f1;
GPGPU-Sim PTX:  6 (potential) branch divergence @  PC=0x2d0 (_1.ptx:186) @!%p5 bra $Lt_1_6914;
GPGPU-Sim PTX:    immediate post dominator      @  PC=0x2e8 (_1.ptx:192) add.s32 %r18, %r18, 1;
GPGPU-Sim PTX:  7 (potential) branch divergence @  PC=0x2f8 (_1.ptx:194) @%p6 bra $Lt_1_5634;
GPGPU-Sim PTX:    immediate post dominator      @  PC=0x300 (_1.ptx:195) bra.uni $Lt_1_4610;
GPGPU-Sim PTX:  8 (potential) branch divergence @  PC=0x300 (_1.ptx:195) bra.uni $Lt_1_4610;
GPGPU-Sim PTX:    immediate post dominator      @  PC=0x320 (_1.ptx:202) @!%p1 bra $Lt_1_7682;
GPGPU-Sim PTX:  9 (potential) branch divergence @  PC=0x310 (_1.ptx:198) bra.uni $Lt_1_4610;
GPGPU-Sim PTX:    immediate post dominator      @  PC=0x320 (_1.ptx:202) @!%p1 bra $Lt_1_7682;
GPGPU-Sim PTX: 10 (potential) branch divergence @  PC=0x320 (_1.ptx:202) @!%p1 bra $Lt_1_7682;
GPGPU-Sim PTX:    immediate post dominator      @  PC=0x350 (_1.ptx:211) exit;
GPGPU-Sim PTX: ... end of reconvergence points for _Z11kmeansPointPfiiiPiS_S_S0_
GPGPU-Sim PTX: ... done pre-decoding instructions for '_Z11kmeansPointPfiiiPiS_S_S0_'.
GPGPU-Sim PTX: allocating global region for "t_features" from 0x100 to 0x104 (global memory space)
GPGPU-Sim PTX: allocating global region for "t_features_flipped" from 0x104 to 0x108 (global memory space)
GPGPU-Sim PTX: allocating global region for "t_clusters" from 0x108 to 0x10c (global memory space)
GPGPU-Sim PTX: finished parsing EMBEDDED .ptx file _1.ptx
Adding _cuobjdump_1.ptx with cubin handle 1
GPGPU-Sim PTX: extracting embedded .ptx to temporary file "_ptx_0BLyMR"
Running: cat _ptx_0BLyMR | sed 's/.version 1.5/.version 1.4/' | sed 's/, texmode_independent//' | sed 's/\(\.extern \.const\[1\] .b8 \w\+\)\[\]/\1\[1\]/' | sed 's/const\[.\]/const\[0\]/g' > _ptx2_b0xKal
GPGPU-Sim PTX: generating ptxinfo using "$CUDA_INSTALL_PATH/bin/ptxas --gpu-name=sm_20 -v _ptx2_b0xKal --output-file  /dev/null 2> _ptx_0BLyMRinfo"
GPGPU-Sim PTX: Kernel '_Z11kmeansPointPfiiiPiS_S_S0_' : regs=15, lmem=0, smem=0, cmem=88
GPGPU-Sim PTX: Kernel '_Z14invert_mappingPfS_ii' : regs=10, lmem=0, smem=0, cmem=56
GPGPU-Sim PTX: removing ptxinfo using "rm -f _ptx_0BLyMR _ptx2_b0xKal _ptx_0BLyMRinfo"
GPGPU-Sim PTX: loading globals with explicit initializers... 
GPGPU-Sim PTX: finished loading globals (0 bytes total).
GPGPU-Sim PTX: loading constants with explicit initializers...  done.
GPGPU-Sim PTX: __cudaRegisterFunction _Z14invert_mappingPfS_ii : hostFun 0x0x402a98, fat_cubin_handle = 1
GPGPU-Sim PTX: in __cudaRegisterTexture:
GPGPU-Sim PTX:   int dim = 1
GPGPU-Sim PTX:   int norm = 0
GPGPU-Sim PTX:   int ext = 0
GPGPU-Sim PTX:   Execution warning: Not finished implementing "void __cudaRegisterTexture(void**, const textureReference*, const void**, const char*, int, int, int)"
GPGPU-Sim PTX: in __cudaRegisterTexture:
GPGPU-Sim PTX:   int dim = 1
GPGPU-Sim PTX:   int norm = 0
GPGPU-Sim PTX:   int ext = 0
GPGPU-Sim PTX:   Execution warning: Not finished implementing "void __cudaRegisterTexture(void**, const textureReference*, const void**, const char*, int, int, int)"
GPGPU-Sim PTX: in __cudaRegisterTexture:
GPGPU-Sim PTX:   int dim = 1
GPGPU-Sim PTX:   int norm = 0
GPGPU-Sim PTX:   int ext = 0
GPGPU-Sim PTX:   Execution warning: Not finished implementing "void __cudaRegisterTexture(void**, const textureReference*, const void**, const char*, int, int, int)"

I/O completed

Number of objects: 28672
Number of features: 138

GPGPU-Sim PTX: cudaLaunch for 0x0x402c28 (mode=performance simulation) on stream 0
GPGPU-Sim PTX: pushing kernel '_Z11kmeansPointPfiiiPiS_S_S0_' to stream 0, gridDim= (11,11,1) blockDim = (256,1,1) 
kernel '_Z11kmeansPointPfiiiPiS_S_S0_' transfer to GPU hardware scheduler
GPGPU-Sim uArch: Shader 1 bind to kernel 1 '_Z11kmeansPointPfiiiPiS_S_S0_'
GPGPU-Sim uArch: CTA/core = 6, limited by: threads
GPGPU-Sim uArch: core:  1, cta: 0 initialized @(1,0)
GPGPU-Sim uArch: Shader 2 bind to kernel 1 '_Z11kmeansPointPfiiiPiS_S_S0_'
GPGPU-Sim uArch: core:  2, cta: 0 initialized @(1,0)
GPGPU-Sim uArch: Shader 3 bind to kernel 1 '_Z11kmeansPointPfiiiPiS_S_S0_'
GPGPU-Sim uArch: core:  3, cta: 0 initialized @(1,0)
GPGPU-Sim uArch: Shader 4 bind to kernel 1 '_Z11kmeansPointPfiiiPiS_S_S0_'
GPGPU-Sim uArch: core:  4, cta: 0 initialized @(1,0)
GPGPU-Sim uArch: Shader 5 bind to kernel 1 '_Z11kmeansPointPfiiiPiS_S_S0_'
GPGPU-Sim uArch: core:  5, cta: 0 initialized @(1,0)
GPGPU-Sim uArch: Shader 6 bind to kernel 1 '_Z11kmeansPointPfiiiPiS_S_S0_'
GPGPU-Sim uArch: core:  6, cta: 0 initialized @(1,0)
GPGPU-Sim uArch: Shader 7 bind to kernel 1 '_Z11kmeansPointPfiiiPiS_S_S0_'
GPGPU-Sim uArch: core:  7, cta: 0 initialized @(1,0)
GPGPU-Sim uArch: Shader 8 bind to kernel 1 '_Z11kmeansPointPfiiiPiS_S_S0_'
GPGPU-Sim uArch: core:  8, cta: 0 initialized @(1,0)
GPGPU-Sim uArch: Shader 9 bind to kernel 1 '_Z11kmeansPointPfiiiPiS_S_S0_'
GPGPU-Sim uArch: core:  9, cta: 0 initialized @(1,0)
GPGPU-Sim uArch: Shader 10 bind to kernel 1 '_Z11kmeansPointPfiiiPiS_S_S0_'
GPGPU-Sim uArch: core: 10, cta: 0 initialized @(1,0)
GPGPU-Sim uArch: Shader 11 bind to kernel 1 '_Z11kmeansPointPfiiiPiS_S_S0_'
GPGPU-Sim uArch: core: 11, cta: 0 initialized @(1,0)
GPGPU-Sim uArch: Shader 12 bind to kernel 1 '_Z11kmeansPointPfiiiPiS_S_S0_'
GPGPU-Sim uArch: core: 12, cta: 0 initialized @(1,0)
GPGPU-Sim uArch: Shader 13 bind to kernel 1 '_Z11kmeansPointPfiiiPiS_S_S0_'
GPGPU-Sim uArch: core: 13, cta: 0 initialized @(1,0)
GPGPU-Sim uArch: Shader 14 bind to kernel 1 '_Z11kmeansPointPfiiiPiS_S_S0_'
GPGPU-Sim uArch: core: 14, cta: 0 initialized @(1,0)
GPGPU-Sim uArch: Shader 0 bind to kernel 1 '_Z11kmeansPointPfiiiPiS_S_S0_'
GPGPU-Sim uArch: core:  0, cta: 0 initialized @(1,0)
GPGPU-Sim uArch: core:  1, cta: 1 initialized @(2,0)
GPGPU-Sim uArch: core:  2, cta: 1 initialized @(2,0)
GPGPU-Sim uArch: core:  3, cta: 1 initialized @(2,0)
GPGPU-Sim uArch: core:  4, cta: 1 initialized @(2,0)
GPGPU-Sim uArch: core:  5, cta: 1 initialized @(2,0)
GPGPU-Sim uArch: core:  6, cta: 1 initialized @(2,0)
GPGPU-Sim uArch: core:  7, cta: 1 initialized @(2,0)
GPGPU-Sim uArch: core:  8, cta: 1 initialized @(2,0)
GPGPU-Sim uArch: core:  9, cta: 1 initialized @(2,0)
GPGPU-Sim uArch: core: 10, cta: 1 initialized @(2,0)
GPGPU-Sim uArch: core: 11, cta: 1 initialized @(2,0)
GPGPU-Sim uArch: core: 12, cta: 1 initialized @(2,0)
GPGPU-Sim uArch: core: 13, cta: 1 initialized @(2,0)
GPGPU-Sim uArch: core: 14, cta: 1 initialized @(2,0)
GPGPU-Sim uArch: core:  0, cta: 1 initialized @(2,0)
GPGPU-Sim uArch: core:  1, cta: 2 initialized @(3,0)
GPGPU-Sim uArch: core:  2, cta: 2 initialized @(3,0)
GPGPU-Sim uArch: core:  3, cta: 2 initialized @(3,0)
GPGPU-Sim uArch: core:  4, cta: 2 initialized @(3,0)
GPGPU-Sim uArch: core:  5, cta: 2 initialized @(3,0)
GPGPU-Sim uArch: core:  6, cta: 2 initialized @(3,0)
GPGPU-Sim uArch: core:  7, cta: 2 initialized @(3,0)
GPGPU-Sim uArch: core:  8, cta: 2 initialized @(3,0)
GPGPU-Sim uArch: core:  9, cta: 2 initialized @(3,0)
GPGPU-Sim uArch: core: 10, cta: 2 initialized @(3,0)
GPGPU-Sim uArch: core: 11, cta: 2 initialized @(3,0)
GPGPU-Sim uArch: core: 12, cta: 2 initialized @(3,0)
GPGPU-Sim uArch: core: 13, cta: 2 initialized @(3,0)
GPGPU-Sim uArch: core: 14, cta: 2 initialized @(3,0)
GPGPU-Sim uArch: core:  0, cta: 2 initialized @(3,0)
GPGPU-Sim uArch: core:  1, cta: 3 initialized @(4,0)
GPGPU-Sim uArch: core:  2, cta: 3 initialized @(4,0)
GPGPU-Sim uArch: core:  3, cta: 3 initialized @(4,0)
GPGPU-Sim uArch: core:  4, cta: 3 initialized @(4,0)
GPGPU-Sim uArch: core:  5, cta: 3 initialized @(4,0)
GPGPU-Sim uArch: core:  6, cta: 3 initialized @(4,0)
GPGPU-Sim uArch: core:  7, cta: 3 initialized @(4,0)
GPGPU-Sim uArch: core:  8, cta: 3 initialized @(4,0)
GPGPU-Sim uArch: core:  9, cta: 3 initialized @(4,0)
GPGPU-Sim uArch: core: 10, cta: 3 initialized @(4,0)
GPGPU-Sim uArch: core: 11, cta: 3 initialized @(4,0)
GPGPU-Sim uArch: core: 12, cta: 3 initialized @(4,0)
GPGPU-Sim uArch: core: 13, cta: 3 initialized @(4,0)
GPGPU-Sim uArch: core: 14, cta: 3 initialized @(4,0)
GPGPU-Sim uArch: core:  0, cta: 3 initialized @(4,0)
GPGPU-Sim uArch: core:  1, cta: 4 initialized @(5,0)
GPGPU-Sim uArch: core:  2, cta: 4 initialized @(5,0)
GPGPU-Sim uArch: core:  3, cta: 4 initialized @(5,0)
GPGPU-Sim uArch: core:  4, cta: 4 initialized @(5,0)
GPGPU-Sim uArch: core:  5, cta: 4 initialized @(5,0)
GPGPU-Sim uArch: core:  6, cta: 4 initialized @(5,0)
GPGPU-Sim uArch: core:  7, cta: 4 initialized @(5,0)
GPGPU-Sim uArch: core:  8, cta: 4 initialized @(5,0)
GPGPU-Sim uArch: core:  9, cta: 4 initialized @(5,0)
GPGPU-Sim uArch: core: 10, cta: 4 initialized @(5,0)
GPGPU-Sim uArch: core: 11, cta: 4 initialized @(5,0)
GPGPU-Sim uArch: core: 12, cta: 4 initialized @(5,0)
GPGPU-Sim uArch: core: 13, cta: 4 initialized @(5,0)
GPGPU-Sim uArch: core: 14, cta: 4 initialized @(5,0)
GPGPU-Sim uArch: core:  0, cta: 4 initialized @(5,0)
GPGPU-Sim uArch: core:  1, cta: 5 initialized @(6,0)
GPGPU-Sim uArch: core:  2, cta: 5 initialized @(6,0)
GPGPU-Sim uArch: core:  3, cta: 5 initialized @(6,0)
GPGPU-Sim uArch: core:  4, cta: 5 initialized @(6,0)
GPGPU-Sim uArch: core:  5, cta: 5 initialized @(6,0)
GPGPU-Sim uArch: core:  6, cta: 5 initialized @(6,0)
GPGPU-Sim uArch: core:  7, cta: 5 initialized @(6,0)
GPGPU-Sim uArch: core:  8, cta: 5 initialized @(6,0)
GPGPU-Sim uArch: core:  9, cta: 5 initialized @(6,0)
GPGPU-Sim uArch: core: 10, cta: 5 initialized @(6,0)
GPGPU-Sim uArch: core: 11, cta: 5 initialized @(6,0)
GPGPU-Sim uArch: core: 12, cta: 5 initialized @(6,0)
GPGPU-Sim uArch: core: 13, cta: 5 initialized @(6,0)
GPGPU-Sim uArch: core: 14, cta: 5 initialized @(6,0)
GPGPU-Sim uArch: core:  0, cta: 5 initialized @(6,0)
GPGPU-Sim PTX: 100000 instructions simulated : ctaid=(7,7,0) tid=(159,0,0)
GPGPU-Sim uArch: cycles simulated: 500  inst.: 147456 (ipc=294.9) sim_rate=73728 (inst/sec) elapsed = 0:0:00:02 / Tue Apr 16 16:49:25 2019
GPGPU-Sim PTX: 200000 instructions simulated : ctaid=(2,2,0) tid=(223,0,0)
GPGPU-Sim PTX: 300000 instructions simulated : ctaid=(3,5,0) tid=(255,0,0)
GPGPU-Sim PTX: 400000 instructions simulated : ctaid=(9,7,0) tid=(191,0,0)
GPGPU-Sim PTX: 500000 instructions simulated : ctaid=(9,4,0) tid=(191,0,0)
GPGPU-Sim PTX: 600000 instructions simulated : ctaid=(3,5,0) tid=(223,0,0)
GPGPU-Sim uArch: cycles simulated: 1500  inst.: 615616 (ipc=410.4) sim_rate=205205 (inst/sec) elapsed = 0:0:00:03 / Tue Apr 16 16:49:26 2019
GPGPU-Sim PTX: 700000 instructions simulated : ctaid=(1,4,0) tid=(159,0,0)
GPGPU-Sim PTX: 800000 instructions simulated : ctaid=(4,5,0) tid=(31,0,0)
GPGPU-Sim PTX: 900000 instructions simulated : ctaid=(2,1,0) tid=(191,0,0)
GPGPU-Sim uArch: cycles simulated: 2000  inst.: 850304 (ipc=425.2) sim_rate=212576 (inst/sec) elapsed = 0:0:00:04 / Tue Apr 16 16:49:27 2019
GPGPU-Sim uArch: cycles simulated: 4000  inst.: 865024 (ipc=216.3) sim_rate=173004 (inst/sec) elapsed = 0:0:00:05 / Tue Apr 16 16:49:28 2019
GPGPU-Sim uArch: cycles simulated: 5500  inst.: 885888 (ipc=161.1) sim_rate=147648 (inst/sec) elapsed = 0:0:00:06 / Tue Apr 16 16:49:29 2019
GPGPU-Sim uArch: cycles simulated: 7000  inst.: 900448 (ipc=128.6) sim_rate=128635 (inst/sec) elapsed = 0:0:00:07 / Tue Apr 16 16:49:30 2019
GPGPU-Sim PTX: 1000000 instructions simulated : ctaid=(3,0,0) tid=(159,0,0)
GPGPU-Sim uArch: cycles simulated: 9000  inst.: 930464 (ipc=103.4) sim_rate=116308 (inst/sec) elapsed = 0:0:00:08 / Tue Apr 16 16:49:31 2019
GPGPU-Sim uArch: cycles simulated: 10500  inst.: 948128 (ipc=90.3) sim_rate=105347 (inst/sec) elapsed = 0:0:00:09 / Tue Apr 16 16:49:32 2019
GPGPU-Sim uArch: cycles simulated: 12000  inst.: 974976 (ipc=81.2) sim_rate=97497 (inst/sec) elapsed = 0:0:00:10 / Tue Apr 16 16:49:33 2019
GPGPU-Sim uArch: cycles simulated: 14000  inst.: 1004672 (ipc=71.8) sim_rate=91333 (inst/sec) elapsed = 0:0:00:11 / Tue Apr 16 16:49:34 2019
GPGPU-Sim PTX: 1100000 instructions simulated : ctaid=(6,2,0) tid=(223,0,0)
GPGPU-Sim uArch: cycles simulated: 15500  inst.: 1028832 (ipc=66.4) sim_rate=85736 (inst/sec) elapsed = 0:0:00:12 / Tue Apr 16 16:49:35 2019
GPGPU-Sim uArch: cycles simulated: 17500  inst.: 1062816 (ipc=60.7) sim_rate=81755 (inst/sec) elapsed = 0:0:00:13 / Tue Apr 16 16:49:36 2019
GPGPU-Sim uArch: cycles simulated: 19000  inst.: 1092800 (ipc=57.5) sim_rate=78057 (inst/sec) elapsed = 0:0:00:14 / Tue Apr 16 16:49:37 2019
GPGPU-Sim uArch: cycles simulated: 20500  inst.: 1116416 (ipc=54.5) sim_rate=74427 (inst/sec) elapsed = 0:0:00:15 / Tue Apr 16 16:49:38 2019
GPGPU-Sim PTX: 1200000 instructions simulated : ctaid=(10,0,0) tid=(159,0,0)
GPGPU-Sim uArch: cycles simulated: 22500  inst.: 1146112 (ipc=50.9) sim_rate=71632 (inst/sec) elapsed = 0:0:00:16 / Tue Apr 16 16:49:39 2019
GPGPU-Sim uArch: cycles simulated: 24000  inst.: 1174816 (ipc=49.0) sim_rate=69106 (inst/sec) elapsed = 0:0:00:17 / Tue Apr 16 16:49:40 2019
GPGPU-Sim uArch: cycles simulated: 26000  inst.: 1205376 (ipc=46.4) sim_rate=66965 (inst/sec) elapsed = 0:0:00:18 / Tue Apr 16 16:49:41 2019
GPGPU-Sim PTX: 1300000 instructions simulated : ctaid=(1,1,0) tid=(95,0,0)
GPGPU-Sim uArch: cycles simulated: 27500  inst.: 1228608 (ipc=44.7) sim_rate=64663 (inst/sec) elapsed = 0:0:00:19 / Tue Apr 16 16:49:42 2019
GPGPU-Sim uArch: cycles simulated: 29500  inst.: 1263072 (ipc=42.8) sim_rate=63153 (inst/sec) elapsed = 0:0:00:20 / Tue Apr 16 16:49:43 2019
GPGPU-Sim uArch: cycles simulated: 31000  inst.: 1291552 (ipc=41.7) sim_rate=61502 (inst/sec) elapsed = 0:0:00:21 / Tue Apr 16 16:49:44 2019
GPGPU-Sim PTX: 1400000 instructions simulated : ctaid=(6,0,0) tid=(95,0,0)
GPGPU-Sim uArch: cycles simulated: 33000  inst.: 1329664 (ipc=40.3) sim_rate=60439 (inst/sec) elapsed = 0:0:00:22 / Tue Apr 16 16:49:45 2019
GPGPU-Sim uArch: cycles simulated: 34500  inst.: 1353504 (ipc=39.2) sim_rate=58848 (inst/sec) elapsed = 0:0:00:23 / Tue Apr 16 16:49:46 2019
GPGPU-Sim uArch: cycles simulated: 36000  inst.: 1383616 (ipc=38.4) sim_rate=57650 (inst/sec) elapsed = 0:0:00:24 / Tue Apr 16 16:49:47 2019
GPGPU-Sim uArch: cycles simulated: 38000  inst.: 1415168 (ipc=37.2) sim_rate=56606 (inst/sec) elapsed = 0:0:00:25 / Tue Apr 16 16:49:48 2019
GPGPU-Sim PTX: 1500000 instructions simulated : ctaid=(2,1,0) tid=(223,0,0)
GPGPU-Sim uArch: cycles simulated: 39500  inst.: 1437920 (ipc=36.4) sim_rate=55304 (inst/sec) elapsed = 0:0:00:26 / Tue Apr 16 16:49:49 2019
GPGPU-Sim uArch: cycles simulated: 41500  inst.: 1475840 (ipc=35.6) sim_rate=54660 (inst/sec) elapsed = 0:0:00:27 / Tue Apr 16 16:49:50 2019
GPGPU-Sim uArch: cycles simulated: 43000  inst.: 1501664 (ipc=34.9) sim_rate=53630 (inst/sec) elapsed = 0:0:00:28 / Tue Apr 16 16:49:51 2019
GPGPU-Sim PTX: 1600000 instructions simulated : ctaid=(3,1,0) tid=(31,0,0)
GPGPU-Sim uArch: cycles simulated: 45000  inst.: 1533856 (ipc=34.1) sim_rate=52891 (inst/sec) elapsed = 0:0:00:29 / Tue Apr 16 16:49:52 2019
GPGPU-Sim uArch: cycles simulated: 46500  inst.: 1556064 (ipc=33.5) sim_rate=51868 (inst/sec) elapsed = 0:0:00:30 / Tue Apr 16 16:49:53 2019
GPGPU-Sim uArch: cycles simulated: 48000  inst.: 1582880 (ipc=33.0) sim_rate=51060 (inst/sec) elapsed = 0:0:00:31 / Tue Apr 16 16:49:54 2019
GPGPU-Sim uArch: cycles simulated: 50000  inst.: 1622624 (ipc=32.5) sim_rate=50707 (inst/sec) elapsed = 0:0:00:32 / Tue Apr 16 16:49:55 2019
GPGPU-Sim PTX: 1700000 instructions simulated : ctaid=(9,0,0) tid=(159,0,0)
GPGPU-Sim uArch: cycles simulated: 51500  inst.: 1649600 (ipc=32.0) sim_rate=49987 (inst/sec) elapsed = 0:0:00:33 / Tue Apr 16 16:49:56 2019
GPGPU-Sim uArch: cycles simulated: 53500  inst.: 1685632 (ipc=31.5) sim_rate=49577 (inst/sec) elapsed = 0:0:00:34 / Tue Apr 16 16:49:57 2019
GPGPU-Sim uArch: cycles simulated: 55000  inst.: 1709600 (ipc=31.1) sim_rate=48845 (inst/sec) elapsed = 0:0:00:35 / Tue Apr 16 16:49:58 2019
GPGPU-Sim PTX: 1800000 instructions simulated : ctaid=(5,2,0) tid=(31,0,0)
GPGPU-Sim uArch: cycles simulated: 57000  inst.: 1751392 (ipc=30.7) sim_rate=48649 (inst/sec) elapsed = 0:0:00:36 / Tue Apr 16 16:49:59 2019
GPGPU-Sim uArch: cycles simulated: 58500  inst.: 1777184 (ipc=30.4) sim_rate=48032 (inst/sec) elapsed = 0:0:00:37 / Tue Apr 16 16:50:00 2019
GPGPU-Sim uArch: cycles simulated: 60000  inst.: 1803296 (ipc=30.1) sim_rate=47455 (inst/sec) elapsed = 0:0:00:38 / Tue Apr 16 16:50:01 2019
GPGPU-Sim PTX: 1900000 instructions simulated : ctaid=(5,0,0) tid=(159,0,0)
GPGPU-Sim uArch: cycles simulated: 62000  inst.: 1837120 (ipc=29.6) sim_rate=47105 (inst/sec) elapsed = 0:0:00:39 / Tue Apr 16 16:50:02 2019
GPGPU-Sim uArch: cycles simulated: 63500  inst.: 1866592 (ipc=29.4) sim_rate=46664 (inst/sec) elapsed = 0:0:00:40 / Tue Apr 16 16:50:03 2019
GPGPU-Sim uArch: cycles simulated: 65500  inst.: 1902080 (ipc=29.0) sim_rate=46392 (inst/sec) elapsed = 0:0:00:41 / Tue Apr 16 16:50:04 2019
GPGPU-Sim PTX: 2000000 instructions simulated : ctaid=(2,0,0) tid=(31,0,0)
GPGPU-Sim uArch: cycles simulated: 67000  inst.: 1932960 (ipc=28.9) sim_rate=46022 (inst/sec) elapsed = 0:0:00:42 / Tue Apr 16 16:50:05 2019
GPGPU-Sim uArch: cycles simulated: 68500  inst.: 1959456 (ipc=28.6) sim_rate=45568 (inst/sec) elapsed = 0:0:00:43 / Tue Apr 16 16:50:06 2019
GPGPU-Sim uArch: cycles simulated: 70500  inst.: 1997216 (ipc=28.3) sim_rate=45391 (inst/sec) elapsed = 0:0:00:44 / Tue Apr 16 16:50:07 2019
GPGPU-Sim uArch: cycles simulated: 72000  inst.: 2026016 (ipc=28.1) sim_rate=45022 (inst/sec) elapsed = 0:0:00:45 / Tue Apr 16 16:50:08 2019
GPGPU-Sim PTX: 2100000 instructions simulated : ctaid=(5,0,0) tid=(31,0,0)
GPGPU-Sim uArch: cycles simulated: 73500  inst.: 2050560 (ipc=27.9) sim_rate=44577 (inst/sec) elapsed = 0:0:00:46 / Tue Apr 16 16:50:09 2019
GPGPU-Sim uArch: cycles simulated: 75500  inst.: 2083328 (ipc=27.6) sim_rate=44326 (inst/sec) elapsed = 0:0:00:47 / Tue Apr 16 16:50:10 2019
GPGPU-Sim uArch: cycles simulated: 77000  inst.: 2108800 (ipc=27.4) sim_rate=43933 (inst/sec) elapsed = 0:0:00:48 / Tue Apr 16 16:50:11 2019
GPGPU-Sim PTX: 2200000 instructions simulated : ctaid=(5,1,0) tid=(159,0,0)
GPGPU-Sim uArch: cycles simulated: 79000  inst.: 2143904 (ipc=27.1) sim_rate=43753 (inst/sec) elapsed = 0:0:00:49 / Tue Apr 16 16:50:12 2019
GPGPU-Sim uArch: cycles simulated: 80500  inst.: 2169664 (ipc=27.0) sim_rate=43393 (inst/sec) elapsed = 0:0:00:50 / Tue Apr 16 16:50:13 2019
GPGPU-Sim uArch: cycles simulated: 82000  inst.: 2198080 (ipc=26.8) sim_rate=43099 (inst/sec) elapsed = 0:0:00:51 / Tue Apr 16 16:50:14 2019
GPGPU-Sim PTX: 2300000 instructions simulated : ctaid=(7,2,0) tid=(31,0,0)
GPGPU-Sim uArch: cycles simulated: 84000  inst.: 2235392 (ipc=26.6) sim_rate=42988 (inst/sec) elapsed = 0:0:00:52 / Tue Apr 16 16:50:15 2019
GPGPU-Sim uArch: cycles simulated: 85500  inst.: 2264672 (ipc=26.5) sim_rate=42729 (inst/sec) elapsed = 0:0:00:53 / Tue Apr 16 16:50:16 2019
GPGPU-Sim uArch: cycles simulated: 87500  inst.: 2301408 (ipc=26.3) sim_rate=42618 (inst/sec) elapsed = 0:0:00:54 / Tue Apr 16 16:50:17 2019
GPGPU-Sim PTX: 2400000 instructions simulated : ctaid=(4,0,0) tid=(95,0,0)
GPGPU-Sim uArch: cycles simulated: 89000  inst.: 2327488 (ipc=26.2) sim_rate=42317 (inst/sec) elapsed = 0:0:00:55 / Tue Apr 16 16:50:18 2019
GPGPU-Sim uArch: cycles simulated: 90500  inst.: 2357120 (ipc=26.0) sim_rate=42091 (inst/sec) elapsed = 0:0:00:56 / Tue Apr 16 16:50:19 2019
GPGPU-Sim uArch: cycles simulated: 92500  inst.: 2389696 (ipc=25.8) sim_rate=41924 (inst/sec) elapsed = 0:0:00:57 / Tue Apr 16 16:50:20 2019
GPGPU-Sim uArch: cycles simulated: 94000  inst.: 2424800 (ipc=25.8) sim_rate=41806 (inst/sec) elapsed = 0:0:00:58 / Tue Apr 16 16:50:21 2019
GPGPU-Sim PTX: 2500000 instructions simulated : ctaid=(5,0,0) tid=(31,0,0)
GPGPU-Sim uArch: cycles simulated: 96000  inst.: 2456672 (ipc=25.6) sim_rate=41638 (inst/sec) elapsed = 0:0:00:59 / Tue Apr 16 16:50:22 2019
GPGPU-Sim uArch: cycles simulated: 97500  inst.: 2483776 (ipc=25.5) sim_rate=41396 (inst/sec) elapsed = 0:0:01:00 / Tue Apr 16 16:50:23 2019
GPGPU-Sim uArch: cycles simulated: 99500  inst.: 2524288 (ipc=25.4) sim_rate=41381 (inst/sec) elapsed = 0:0:01:01 / Tue Apr 16 16:50:24 2019
GPGPU-Sim PTX: 2600000 instructions simulated : ctaid=(7,1,0) tid=(31,0,0)
GPGPU-Sim uArch: cycles simulated: 101000  inst.: 2552704 (ipc=25.3) sim_rate=41172 (inst/sec) elapsed = 0:0:01:02 / Tue Apr 16 16:50:25 2019
GPGPU-Sim uArch: cycles simulated: 102500  inst.: 2579968 (ipc=25.2) sim_rate=40951 (inst/sec) elapsed = 0:0:01:03 / Tue Apr 16 16:50:26 2019
GPGPU-Sim uArch: cycles simulated: 104500  inst.: 2617984 (ipc=25.1) sim_rate=40906 (inst/sec) elapsed = 0:0:01:04 / Tue Apr 16 16:50:27 2019
GPGPU-Sim PTX: 2700000 instructions simulated : ctaid=(4,0,0) tid=(127,0,0)
GPGPU-Sim uArch: cycles simulated: 106000  inst.: 2639072 (ipc=24.9) sim_rate=40601 (inst/sec) elapsed = 0:0:01:05 / Tue Apr 16 16:50:28 2019
GPGPU-Sim uArch: cycles simulated: 108000  inst.: 2675744 (ipc=24.8) sim_rate=40541 (inst/sec) elapsed = 0:0:01:06 / Tue Apr 16 16:50:29 2019
GPGPU-Sim uArch: cycles simulated: 109500  inst.: 2705696 (ipc=24.7) sim_rate=40383 (inst/sec) elapsed = 0:0:01:07 / Tue Apr 16 16:50:30 2019
GPGPU-Sim PTX: 2800000 instructions simulated : ctaid=(3,1,0) tid=(95,0,0)
GPGPU-Sim uArch: cycles simulated: 111000  inst.: 2732096 (ipc=24.6) sim_rate=40177 (inst/sec) elapsed = 0:0:01:08 / Tue Apr 16 16:50:31 2019
GPGPU-Sim uArch: cycles simulated: 113000  inst.: 2766080 (ipc=24.5) sim_rate=40088 (inst/sec) elapsed = 0:0:01:09 / Tue Apr 16 16:50:32 2019
GPGPU-Sim uArch: cycles simulated: 114500  inst.: 2794272 (ipc=24.4) sim_rate=39918 (inst/sec) elapsed = 0:0:01:10 / Tue Apr 16 16:50:33 2019
GPGPU-Sim PTX: 2900000 instructions simulated : ctaid=(7,0,0) tid=(95,0,0)
GPGPU-Sim uArch: cycles simulated: 116500  inst.: 2833120 (ipc=24.3) sim_rate=39903 (inst/sec) elapsed = 0:0:01:11 / Tue Apr 16 16:50:34 2019
GPGPU-Sim uArch: cycles simulated: 118000  inst.: 2857856 (ipc=24.2) sim_rate=39692 (inst/sec) elapsed = 0:0:01:12 / Tue Apr 16 16:50:35 2019
GPGPU-Sim uArch: cycles simulated: 119500  inst.: 2882752 (ipc=24.1) sim_rate=39489 (inst/sec) elapsed = 0:0:01:13 / Tue Apr 16 16:50:36 2019
GPGPU-Sim uArch: cycles simulated: 121500  inst.: 2918752 (ipc=24.0) sim_rate=39442 (inst/sec) elapsed = 0:0:01:14 / Tue Apr 16 16:50:37 2019
GPGPU-Sim PTX: 3000000 instructions simulated : ctaid=(9,0,0) tid=(223,0,0)
GPGPU-Sim uArch: cycles simulated: 123000  inst.: 2944160 (ipc=23.9) sim_rate=39255 (inst/sec) elapsed = 0:0:01:15 / Tue Apr 16 16:50:38 2019
GPGPU-Sim uArch: cycles simulated: 125000  inst.: 2980768 (ipc=23.8) sim_rate=39220 (inst/sec) elapsed = 0:0:01:16 / Tue Apr 16 16:50:39 2019
GPGPU-Sim uArch: cycles simulated: 126500  inst.: 3003488 (ipc=23.7) sim_rate=39006 (inst/sec) elapsed = 0:0:01:17 / Tue Apr 16 16:50:40 2019
GPGPU-Sim PTX: 3100000 instructions simulated : ctaid=(4,0,0) tid=(159,0,0)
GPGPU-Sim uArch: cycles simulated: 128500  inst.: 3038720 (ipc=23.6) sim_rate=38957 (inst/sec) elapsed = 0:0:01:18 / Tue Apr 16 16:50:41 2019
GPGPU-Sim uArch: cycles simulated: 130000  inst.: 3068032 (ipc=23.6) sim_rate=38835 (inst/sec) elapsed = 0:0:01:19 / Tue Apr 16 16:50:42 2019
GPGPU-Sim uArch: cycles simulated: 132000  inst.: 3098848 (ipc=23.5) sim_rate=38735 (inst/sec) elapsed = 0:0:01:20 / Tue Apr 16 16:50:43 2019
GPGPU-Sim uArch: cycles simulated: 133500  inst.: 3124992 (ipc=23.4) sim_rate=38580 (inst/sec) elapsed = 0:0:01:21 / Tue Apr 16 16:50:44 2019
GPGPU-Sim PTX: 3200000 instructions simulated : ctaid=(10,3,0) tid=(31,0,0)
GPGPU-Sim uArch: cycles simulated: 135000  inst.: 3154048 (ipc=23.4) sim_rate=38464 (inst/sec) elapsed = 0:0:01:22 / Tue Apr 16 16:50:45 2019
GPGPU-Sim uArch: cycles simulated: 137000  inst.: 3179328 (ipc=23.2) sim_rate=38305 (inst/sec) elapsed = 0:0:01:23 / Tue Apr 16 16:50:46 2019
GPGPU-Sim uArch: cycles simulated: 138500  inst.: 3205152 (ipc=23.1) sim_rate=38156 (inst/sec) elapsed = 0:0:01:24 / Tue Apr 16 16:50:47 2019
GPGPU-Sim PTX: 3300000 instructions simulated : ctaid=(5,0,0) tid=(223,0,0)
GPGPU-Sim uArch: cycles simulated: 140500  inst.: 3235264 (ipc=23.0) sim_rate=38061 (inst/sec) elapsed = 0:0:01:25 / Tue Apr 16 16:50:48 2019
GPGPU-Sim uArch: cycles simulated: 142000  inst.: 3263264 (ipc=23.0) sim_rate=37944 (inst/sec) elapsed = 0:0:01:26 / Tue Apr 16 16:50:49 2019
GPGPU-Sim uArch: cycles simulated: 144000  inst.: 3293216 (ipc=22.9) sim_rate=37853 (inst/sec) elapsed = 0:0:01:27 / Tue Apr 16 16:50:50 2019
GPGPU-Sim uArch: cycles simulated: 145500  inst.: 3324160 (ipc=22.8) sim_rate=37774 (inst/sec) elapsed = 0:0:01:28 / Tue Apr 16 16:50:51 2019
GPGPU-Sim PTX: 3400000 instructions simulated : ctaid=(2,0,0) tid=(223,0,0)
GPGPU-Sim uArch: cycles simulated: 147500  inst.: 3357728 (ipc=22.8) sim_rate=37727 (inst/sec) elapsed = 0:0:01:29 / Tue Apr 16 16:50:52 2019
GPGPU-Sim uArch: cycles simulated: 149000  inst.: 3387584 (ipc=22.7) sim_rate=37639 (inst/sec) elapsed = 0:0:01:30 / Tue Apr 16 16:50:53 2019
GPGPU-Sim uArch: cycles simulated: 150500  inst.: 3411584 (ipc=22.7) sim_rate=37489 (inst/sec) elapsed = 0:0:01:31 / Tue Apr 16 16:50:54 2019
GPGPU-Sim PTX: 3500000 instructions simulated : ctaid=(8,0,0) tid=(31,0,0)
GPGPU-Sim uArch: cycles simulated: 152500  inst.: 3450976 (ipc=22.6) sim_rate=37510 (inst/sec) elapsed = 0:0:01:32 / Tue Apr 16 16:50:55 2019
GPGPU-Sim uArch: cycles simulated: 154000  inst.: 3475008 (ipc=22.6) sim_rate=37365 (inst/sec) elapsed = 0:0:01:33 / Tue Apr 16 16:50:56 2019
GPGPU-Sim uArch: cycles simulated: 156000  inst.: 3505728 (ipc=22.5) sim_rate=37294 (inst/sec) elapsed = 0:0:01:34 / Tue Apr 16 16:50:57 2019
GPGPU-Sim PTX: 3600000 instructions simulated : ctaid=(3,1,0) tid=(95,0,0)
GPGPU-Sim uArch: cycles simulated: 157500  inst.: 3531840 (ipc=22.4) sim_rate=37177 (inst/sec) elapsed = 0:0:01:35 / Tue Apr 16 16:50:58 2019
GPGPU-Sim uArch: cycles simulated: 159500  inst.: 3564608 (ipc=22.3) sim_rate=37131 (inst/sec) elapsed = 0:0:01:36 / Tue Apr 16 16:50:59 2019
GPGPU-Sim uArch: cycles simulated: 161000  inst.: 3588928 (ipc=22.3) sim_rate=36999 (inst/sec) elapsed = 0:0:01:37 / Tue Apr 16 16:51:00 2019
GPGPU-Sim uArch: cycles simulated: 162500  inst.: 3614496 (ipc=22.2) sim_rate=36882 (inst/sec) elapsed = 0:0:01:38 / Tue Apr 16 16:51:01 2019
GPGPU-Sim PTX: 3700000 instructions simulated : ctaid=(1,0,0) tid=(31,0,0)
GPGPU-Sim uArch: cycles simulated: 164500  inst.: 3648608 (ipc=22.2) sim_rate=36854 (inst/sec) elapsed = 0:0:01:39 / Tue Apr 16 16:51:02 2019
GPGPU-Sim uArch: cycles simulated: 166000  inst.: 3675840 (ipc=22.1) sim_rate=36758 (inst/sec) elapsed = 0:0:01:40 / Tue Apr 16 16:51:03 2019
GPGPU-Sim uArch: cycles simulated: 168000  inst.: 3708256 (ipc=22.1) sim_rate=36715 (inst/sec) elapsed = 0:0:01:41 / Tue Apr 16 16:51:04 2019
GPGPU-Sim PTX: 3800000 instructions simulated : ctaid=(7,1,0) tid=(31,0,0)
GPGPU-Sim uArch: cycles simulated: 169500  inst.: 3741696 (ipc=22.1) sim_rate=36683 (inst/sec) elapsed = 0:0:01:42 / Tue Apr 16 16:51:05 2019
GPGPU-Sim uArch: cycles simulated: 171000  inst.: 3762976 (ipc=22.0) sim_rate=36533 (inst/sec) elapsed = 0:0:01:43 / Tue Apr 16 16:51:06 2019
GPGPU-Sim uArch: cycles simulated: 173000  inst.: 3793024 (ipc=21.9) sim_rate=36471 (inst/sec) elapsed = 0:0:01:44 / Tue Apr 16 16:51:07 2019
GPGPU-Sim uArch: cycles simulated: 174500  inst.: 3821696 (ipc=21.9) sim_rate=36397 (inst/sec) elapsed = 0:0:01:45 / Tue Apr 16 16:51:08 2019
GPGPU-Sim PTX: 3900000 instructions simulated : ctaid=(1,0,0) tid=(95,0,0)
GPGPU-Sim uArch: cycles simulated: 176500  inst.: 3860224 (ipc=21.9) sim_rate=36417 (inst/sec) elapsed = 0:0:01:46 / Tue Apr 16 16:51:09 2019
GPGPU-Sim uArch: cycles simulated: 178000  inst.: 3892704 (ipc=21.9) sim_rate=36380 (inst/sec) elapsed = 0:0:01:47 / Tue Apr 16 16:51:10 2019
GPGPU-Sim uArch: cycles simulated: 179500  inst.: 3914656 (ipc=21.8) sim_rate=36246 (inst/sec) elapsed = 0:0:01:48 / Tue Apr 16 16:51:11 2019
GPGPU-Sim PTX: 4000000 instructions simulated : ctaid=(6,1,0) tid=(31,0,0)
GPGPU-Sim uArch: cycles simulated: 181500  inst.: 3949344 (ipc=21.8) sim_rate=36232 (inst/sec) elapsed = 0:0:01:49 / Tue Apr 16 16:51:12 2019
GPGPU-Sim uArch: cycles simulated: 183000  inst.: 3973792 (ipc=21.7) sim_rate=36125 (inst/sec) elapsed = 0:0:01:50 / Tue Apr 16 16:51:13 2019
GPGPU-Sim uArch: cycles simulated: 185000  inst.: 4009504 (ipc=21.7) sim_rate=36121 (inst/sec) elapsed = 0:0:01:51 / Tue Apr 16 16:51:14 2019
GPGPU-Sim PTX: 4100000 instructions simulated : ctaid=(6,0,0) tid=(95,0,0)
GPGPU-Sim uArch: cycles simulated: 186500  inst.: 4033152 (ipc=21.6) sim_rate=36010 (inst/sec) elapsed = 0:0:01:52 / Tue Apr 16 16:51:15 2019
GPGPU-Sim uArch: cycles simulated: 188500  inst.: 4070048 (ipc=21.6) sim_rate=36018 (inst/sec) elapsed = 0:0:01:53 / Tue Apr 16 16:51:16 2019
GPGPU-Sim uArch: cycles simulated: 190000  inst.: 4095744 (ipc=21.6) sim_rate=35927 (inst/sec) elapsed = 0:0:01:54 / Tue Apr 16 16:51:17 2019
GPGPU-Sim uArch: cycles simulated: 191500  inst.: 4117856 (ipc=21.5) sim_rate=35807 (inst/sec) elapsed = 0:0:01:55 / Tue Apr 16 16:51:18 2019
GPGPU-Sim PTX: 4200000 instructions simulated : ctaid=(8,1,0) tid=(223,0,0)
GPGPU-Sim uArch: cycles simulated: 193500  inst.: 4162816 (ipc=21.5) sim_rate=35886 (inst/sec) elapsed = 0:0:01:56 / Tue Apr 16 16:51:19 2019
GPGPU-Sim uArch: cycles simulated: 195000  inst.: 4190240 (ipc=21.5) sim_rate=35814 (inst/sec) elapsed = 0:0:01:57 / Tue Apr 16 16:51:20 2019
GPGPU-Sim uArch: cycles simulated: 197000  inst.: 4222240 (ipc=21.4) sim_rate=35781 (inst/sec) elapsed = 0:0:01:58 / Tue Apr 16 16:51:21 2019
GPGPU-Sim PTX: 4300000 instructions simulated : ctaid=(6,0,0) tid=(31,0,0)
GPGPU-Sim uArch: cycles simulated: 198500  inst.: 4247168 (ipc=21.4) sim_rate=35690 (inst/sec) elapsed = 0:0:01:59 / Tue Apr 16 16:51:22 2019
GPGPU-Sim uArch: cycles simulated: 200500  inst.: 4285056 (ipc=21.4) sim_rate=35708 (inst/sec) elapsed = 0:0:02:00 / Tue Apr 16 16:51:23 2019
GPGPU-Sim uArch: cycles simulated: 202500  inst.: 4318528 (ipc=21.3) sim_rate=35690 (inst/sec) elapsed = 0:0:02:01 / Tue Apr 16 16:51:24 2019
GPGPU-Sim PTX: 4400000 instructions simulated : ctaid=(8,1,0) tid=(95,0,0)
GPGPU-Sim uArch: cycles simulated: 204000  inst.: 4348224 (ipc=21.3) sim_rate=35641 (inst/sec) elapsed = 0:0:02:02 / Tue Apr 16 16:51:25 2019
GPGPU-Sim uArch: cycles simulated: 205500  inst.: 4375520 (ipc=21.3) sim_rate=35573 (inst/sec) elapsed = 0:0:02:03 / Tue Apr 16 16:51:26 2019
GPGPU-Sim uArch: cycles simulated: 207500  inst.: 4413696 (ipc=21.3) sim_rate=35594 (inst/sec) elapsed = 0:0:02:04 / Tue Apr 16 16:51:27 2019
GPGPU-Sim PTX: 4500000 instructions simulated : ctaid=(0,1,0) tid=(31,0,0)
GPGPU-Sim uArch: cycles simulated: 209000  inst.: 4441952 (ipc=21.3) sim_rate=35535 (inst/sec) elapsed = 0:0:02:05 / Tue Apr 16 16:51:28 2019
GPGPU-Sim uArch: cycles simulated: 211000  inst.: 4473760 (ipc=21.2) sim_rate=35506 (inst/sec) elapsed = 0:0:02:06 / Tue Apr 16 16:51:29 2019
GPGPU-Sim uArch: cycles simulated: 212500  inst.: 4501152 (ipc=21.2) sim_rate=35442 (inst/sec) elapsed = 0:0:02:07 / Tue Apr 16 16:51:30 2019
GPGPU-Sim PTX: 4600000 instructions simulated : ctaid=(9,0,0) tid=(159,0,0)
GPGPU-Sim uArch: cycles simulated: 214000  inst.: 4530752 (ipc=21.2) sim_rate=35396 (inst/sec) elapsed = 0:0:02:08 / Tue Apr 16 16:51:31 2019
GPGPU-Sim uArch: cycles simulated: 216000  inst.: 4567136 (ipc=21.1) sim_rate=35404 (inst/sec) elapsed = 0:0:02:09 / Tue Apr 16 16:51:32 2019
GPGPU-Sim uArch: cycles simulated: 217500  inst.: 4594496 (ipc=21.1) sim_rate=35342 (inst/sec) elapsed = 0:0:02:10 / Tue Apr 16 16:51:33 2019
GPGPU-Sim uArch: cycles simulated: 219000  inst.: 4621056 (ipc=21.1) sim_rate=35275 (inst/sec) elapsed = 0:0:02:11 / Tue Apr 16 16:51:34 2019
GPGPU-Sim PTX: 4700000 instructions simulated : ctaid=(3,2,0) tid=(159,0,0)
GPGPU-Sim uArch: cycles simulated: 221000  inst.: 4651456 (ipc=21.0) sim_rate=35238 (inst/sec) elapsed = 0:0:02:12 / Tue Apr 16 16:51:35 2019
GPGPU-Sim uArch: cycles simulated: 222500  inst.: 4684992 (ipc=21.1) sim_rate=35225 (inst/sec) elapsed = 0:0:02:13 / Tue Apr 16 16:51:36 2019
GPGPU-Sim uArch: cycles simulated: 224500  inst.: 4718624 (ipc=21.0) sim_rate=35213 (inst/sec) elapsed = 0:0:02:14 / Tue Apr 16 16:51:37 2019
GPGPU-Sim PTX: 4800000 instructions simulated : ctaid=(5,2,0) tid=(31,0,0)
GPGPU-Sim uArch: cycles simulated: 226000  inst.: 4743040 (ipc=21.0) sim_rate=35133 (inst/sec) elapsed = 0:0:02:15 / Tue Apr 16 16:51:38 2019
GPGPU-Sim uArch: cycles simulated: 227500  inst.: 4775264 (ipc=21.0) sim_rate=35112 (inst/sec) elapsed = 0:0:02:16 / Tue Apr 16 16:51:39 2019
GPGPU-Sim uArch: cycles simulated: 229500  inst.: 4812544 (ipc=21.0) sim_rate=35128 (inst/sec) elapsed = 0:0:02:17 / Tue Apr 16 16:51:40 2019
GPGPU-Sim PTX: 4900000 instructions simulated : ctaid=(2,0,0) tid=(223,0,0)
GPGPU-Sim uArch: cycles simulated: 231000  inst.: 4839648 (ipc=21.0) sim_rate=35069 (inst/sec) elapsed = 0:0:02:18 / Tue Apr 16 16:51:41 2019
GPGPU-Sim uArch: cycles simulated: 233000  inst.: 4873888 (ipc=20.9) sim_rate=35063 (inst/sec) elapsed = 0:0:02:19 / Tue Apr 16 16:51:42 2019
GPGPU-Sim uArch: cycles simulated: 234500  inst.: 4896512 (ipc=20.9) sim_rate=34975 (inst/sec) elapsed = 0:0:02:20 / Tue Apr 16 16:51:43 2019
GPGPU-Sim uArch: cycles simulated: 236000  inst.: 4925952 (ipc=20.9) sim_rate=34935 (inst/sec) elapsed = 0:0:02:21 / Tue Apr 16 16:51:44 2019
GPGPU-Sim PTX: 5000000 instructions simulated : ctaid=(5,0,0) tid=(159,0,0)
GPGPU-Sim uArch: cycles simulated: 238000  inst.: 4964096 (ipc=20.9) sim_rate=34958 (inst/sec) elapsed = 0:0:02:22 / Tue Apr 16 16:51:45 2019
GPGPU-Sim uArch: cycles simulated: 239500  inst.: 4991328 (ipc=20.8) sim_rate=34904 (inst/sec) elapsed = 0:0:02:23 / Tue Apr 16 16:51:46 2019
GPGPU-Sim uArch: cycles simulated: 241500  inst.: 5020064 (ipc=20.8) sim_rate=34861 (inst/sec) elapsed = 0:0:02:24 / Tue Apr 16 16:51:47 2019
GPGPU-Sim PTX: 5100000 instructions simulated : ctaid=(7,0,0) tid=(159,0,0)
GPGPU-Sim uArch: cycles simulated: 243000  inst.: 5046976 (ipc=20.8) sim_rate=34806 (inst/sec) elapsed = 0:0:02:25 / Tue Apr 16 16:51:48 2019
GPGPU-Sim uArch: cycles simulated: 244500  inst.: 5075904 (ipc=20.8) sim_rate=34766 (inst/sec) elapsed = 0:0:02:26 / Tue Apr 16 16:51:49 2019
GPGPU-Sim uArch: cycles simulated: 246500  inst.: 5109728 (ipc=20.7) sim_rate=34760 (inst/sec) elapsed = 0:0:02:27 / Tue Apr 16 16:51:50 2019
GPGPU-Sim PTX: 5200000 instructions simulated : ctaid=(3,1,0) tid=(95,0,0)
GPGPU-Sim uArch: cycles simulated: 248000  inst.: 5141344 (ipc=20.7) sim_rate=34738 (inst/sec) elapsed = 0:0:02:28 / Tue Apr 16 16:51:51 2019
GPGPU-Sim uArch: cycles simulated: 250000  inst.: 5170496 (ipc=20.7) sim_rate=34701 (inst/sec) elapsed = 0:0:02:29 / Tue Apr 16 16:51:52 2019
GPGPU-Sim uArch: cycles simulated: 251500  inst.: 5198080 (ipc=20.7) sim_rate=34653 (inst/sec) elapsed = 0:0:02:30 / Tue Apr 16 16:51:53 2019
GPGPU-Sim PTX: 5300000 instructions simulated : ctaid=(4,0,0) tid=(31,0,0)
GPGPU-Sim uArch: cycles simulated: 253500  inst.: 5237504 (ipc=20.7) sim_rate=34685 (inst/sec) elapsed = 0:0:02:31 / Tue Apr 16 16:51:54 2019
GPGPU-Sim uArch: cycles simulated: 255000  inst.: 5264544 (ipc=20.6) sim_rate=34635 (inst/sec) elapsed = 0:0:02:32 / Tue Apr 16 16:51:55 2019
GPGPU-Sim uArch: cycles simulated: 256500  inst.: 5294016 (ipc=20.6) sim_rate=34601 (inst/sec) elapsed = 0:0:02:33 / Tue Apr 16 16:51:56 2019
GPGPU-Sim PTX: 5400000 instructions simulated : ctaid=(2,0,0) tid=(31,0,0)
GPGPU-Sim uArch: cycles simulated: 258500  inst.: 5331008 (ipc=20.6) sim_rate=34616 (inst/sec) elapsed = 0:0:02:34 / Tue Apr 16 16:51:57 2019
GPGPU-Sim uArch: cycles simulated: 260000  inst.: 5353408 (ipc=20.6) sim_rate=34538 (inst/sec) elapsed = 0:0:02:35 / Tue Apr 16 16:51:58 2019
GPGPU-Sim uArch: cycles simulated: 262000  inst.: 5390176 (ipc=20.6) sim_rate=34552 (inst/sec) elapsed = 0:0:02:36 / Tue Apr 16 16:51:59 2019
GPGPU-Sim uArch: cycles simulated: 263500  inst.: 5416864 (ipc=20.6) sim_rate=34502 (inst/sec) elapsed = 0:0:02:37 / Tue Apr 16 16:52:00 2019
GPGPU-Sim PTX: 5500000 instructions simulated : ctaid=(9,0,0) tid=(95,0,0)
GPGPU-Sim uArch: cycles simulated: 265000  inst.: 5444480 (ipc=20.5) sim_rate=34458 (inst/sec) elapsed = 0:0:02:38 / Tue Apr 16 16:52:01 2019
GPGPU-Sim uArch: cycles simulated: 267000  inst.: 5484832 (ipc=20.5) sim_rate=34495 (inst/sec) elapsed = 0:0:02:39 / Tue Apr 16 16:52:02 2019
GPGPU-Sim uArch: cycles simulated: 268500  inst.: 5511904 (ipc=20.5) sim_rate=34449 (inst/sec) elapsed = 0:0:02:40 / Tue Apr 16 16:52:03 2019
GPGPU-Sim PTX: 5600000 instructions simulated : ctaid=(6,2,0) tid=(31,0,0)
GPGPU-Sim uArch: cycles simulated: 270500  inst.: 5549856 (ipc=20.5) sim_rate=34471 (inst/sec) elapsed = 0:0:02:41 / Tue Apr 16 16:52:04 2019
GPGPU-Sim uArch: cycles simulated: 272000  inst.: 5576224 (ipc=20.5) sim_rate=34421 (inst/sec) elapsed = 0:0:02:42 / Tue Apr 16 16:52:05 2019
GPGPU-Sim uArch: cycles simulated: 273500  inst.: 5605760 (ipc=20.5) sim_rate=34391 (inst/sec) elapsed = 0:0:02:43 / Tue Apr 16 16:52:06 2019
GPGPU-Sim PTX: 5700000 instructions simulated : ctaid=(5,0,0) tid=(31,0,0)
GPGPU-Sim uArch: cycles simulated: 275500  inst.: 5640256 (ipc=20.5) sim_rate=34391 (inst/sec) elapsed = 0:0:02:44 / Tue Apr 16 16:52:07 2019
GPGPU-Sim uArch: cycles simulated: 277000  inst.: 5666592 (ipc=20.5) sim_rate=34342 (inst/sec) elapsed = 0:0:02:45 / Tue Apr 16 16:52:08 2019
GPGPU-Sim uArch: cycles simulated: 279000  inst.: 5705440 (ipc=20.4) sim_rate=34370 (inst/sec) elapsed = 0:0:02:46 / Tue Apr 16 16:52:09 2019
GPGPU-Sim PTX: 5800000 instructions simulated : ctaid=(4,0,0) tid=(127,0,0)
GPGPU-Sim uArch: cycles simulated: 280500  inst.: 5735616 (ipc=20.4) sim_rate=34345 (inst/sec) elapsed = 0:0:02:47 / Tue Apr 16 16:52:10 2019
GPGPU-Sim uArch: cycles simulated: 282000  inst.: 5763680 (ipc=20.4) sim_rate=34307 (inst/sec) elapsed = 0:0:02:48 / Tue Apr 16 16:52:11 2019
GPGPU-Sim uArch: cycles simulated: 284000  inst.: 5801824 (ipc=20.4) sim_rate=34330 (inst/sec) elapsed = 0:0:02:49 / Tue Apr 16 16:52:12 2019
GPGPU-Sim PTX: 5900000 instructions simulated : ctaid=(1,1,0) tid=(31,0,0)
GPGPU-Sim uArch: cycles simulated: 285500  inst.: 5824576 (ipc=20.4) sim_rate=34262 (inst/sec) elapsed = 0:0:02:50 / Tue Apr 16 16:52:13 2019
GPGPU-Sim uArch: cycles simulated: 287500  inst.: 5865792 (ipc=20.4) sim_rate=34302 (inst/sec) elapsed = 0:0:02:51 / Tue Apr 16 16:52:14 2019
GPGPU-Sim uArch: cycles simulated: 289000  inst.: 5889184 (ipc=20.4) sim_rate=34239 (inst/sec) elapsed = 0:0:02:52 / Tue Apr 16 16:52:15 2019
GPGPU-Sim uArch: cycles simulated: 290500  inst.: 5915360 (ipc=20.4) sim_rate=34192 (inst/sec) elapsed = 0:0:02:53 / Tue Apr 16 16:52:16 2019
GPGPU-Sim PTX: 6000000 instructions simulated : ctaid=(1,2,0) tid=(31,0,0)
GPGPU-Sim uArch: cycles simulated: 292500  inst.: 5952096 (ipc=20.3) sim_rate=34207 (inst/sec) elapsed = 0:0:02:54 / Tue Apr 16 16:52:17 2019
GPGPU-Sim uArch: cycles simulated: 294000  inst.: 5977984 (ipc=20.3) sim_rate=34159 (inst/sec) elapsed = 0:0:02:55 / Tue Apr 16 16:52:18 2019
GPGPU-Sim uArch: cycles simulated: 295500  inst.: 6004896 (ipc=20.3) sim_rate=34118 (inst/sec) elapsed = 0:0:02:56 / Tue Apr 16 16:52:19 2019
GPGPU-Sim PTX: 6100000 instructions simulated : ctaid=(2,2,0) tid=(95,0,0)
GPGPU-Sim uArch: cycles simulated: 297500  inst.: 6038496 (ipc=20.3) sim_rate=34115 (inst/sec) elapsed = 0:0:02:57 / Tue Apr 16 16:52:20 2019
GPGPU-Sim uArch: cycles simulated: 299000  inst.: 6064128 (ipc=20.3) sim_rate=34068 (inst/sec) elapsed = 0:0:02:58 / Tue Apr 16 16:52:21 2019
GPGPU-Sim uArch: cycles simulated: 301000  inst.: 6101728 (ipc=20.3) sim_rate=34087 (inst/sec) elapsed = 0:0:02:59 / Tue Apr 16 16:52:22 2019
GPGPU-Sim PTX: 6200000 instructions simulated : ctaid=(1,0,0) tid=(127,0,0)
GPGPU-Sim uArch: cycles simulated: 302500  inst.: 6127424 (ipc=20.3) sim_rate=34041 (inst/sec) elapsed = 0:0:03:00 / Tue Apr 16 16:52:23 2019
GPGPU-Sim uArch: cycles simulated: 304000  inst.: 6157472 (ipc=20.3) sim_rate=34019 (inst/sec) elapsed = 0:0:03:01 / Tue Apr 16 16:52:24 2019
GPGPU-Sim uArch: cycles simulated: 306000  inst.: 6191904 (ipc=20.2) sim_rate=34021 (inst/sec) elapsed = 0:0:03:02 / Tue Apr 16 16:52:25 2019
GPGPU-Sim uArch: cycles simulated: 307500  inst.: 6216800 (ipc=20.2) sim_rate=33971 (inst/sec) elapsed = 0:0:03:03 / Tue Apr 16 16:52:26 2019
GPGPU-Sim PTX: 6300000 instructions simulated : ctaid=(3,1,0) tid=(223,0,0)
GPGPU-Sim uArch: cycles simulated: 309500  inst.: 6249472 (ipc=20.2) sim_rate=33964 (inst/sec) elapsed = 0:0:03:04 / Tue Apr 16 16:52:27 2019
GPGPU-Sim uArch: cycles simulated: 311000  inst.: 6273216 (ipc=20.2) sim_rate=33909 (inst/sec) elapsed = 0:0:03:05 / Tue Apr 16 16:52:28 2019
GPGPU-Sim uArch: cycles simulated: 312500  inst.: 6299648 (ipc=20.2) sim_rate=33869 (inst/sec) elapsed = 0:0:03:06 / Tue Apr 16 16:52:29 2019
GPGPU-Sim PTX: 6400000 instructions simulated : ctaid=(4,0,0) tid=(31,0,0)
GPGPU-Sim uArch: cycles simulated: 314500  inst.: 6328000 (ipc=20.1) sim_rate=33839 (inst/sec) elapsed = 0:0:03:07 / Tue Apr 16 16:52:30 2019
GPGPU-Sim uArch: cycles simulated: 316000  inst.: 6353792 (ipc=20.1) sim_rate=33796 (inst/sec) elapsed = 0:0:03:08 / Tue Apr 16 16:52:31 2019
GPGPU-Sim uArch: cycles simulated: 318000  inst.: 6384544 (ipc=20.1) sim_rate=33780 (inst/sec) elapsed = 0:0:03:09 / Tue Apr 16 16:52:32 2019
GPGPU-Sim uArch: cycles simulated: 319500  inst.: 6413696 (ipc=20.1) sim_rate=33756 (inst/sec) elapsed = 0:0:03:10 / Tue Apr 16 16:52:33 2019
GPGPU-Sim PTX: 6500000 instructions simulated : ctaid=(2,1,0) tid=(223,0,0)
GPGPU-Sim uArch: cycles simulated: 321500  inst.: 6440192 (ipc=20.0) sim_rate=33718 (inst/sec) elapsed = 0:0:03:11 / Tue Apr 16 16:52:34 2019
GPGPU-Sim uArch: cycles simulated: 323000  inst.: 6467168 (ipc=20.0) sim_rate=33683 (inst/sec) elapsed = 0:0:03:12 / Tue Apr 16 16:52:35 2019
GPGPU-Sim uArch: cycles simulated: 324500  inst.: 6486880 (ipc=20.0) sim_rate=33610 (inst/sec) elapsed = 0:0:03:13 / Tue Apr 16 16:52:36 2019
GPGPU-Sim uArch: cycles simulated: 326500  inst.: 6518912 (ipc=20.0) sim_rate=33602 (inst/sec) elapsed = 0:0:03:14 / Tue Apr 16 16:52:37 2019
GPGPU-Sim PTX: 6600000 instructions simulated : ctaid=(6,0,0) tid=(95,0,0)
GPGPU-Sim uArch: cycles simulated: 328000  inst.: 6546432 (ipc=20.0) sim_rate=33571 (inst/sec) elapsed = 0:0:03:15 / Tue Apr 16 16:52:38 2019
GPGPU-Sim uArch: cycles simulated: 330000  inst.: 6576896 (ipc=19.9) sim_rate=33555 (inst/sec) elapsed = 0:0:03:16 / Tue Apr 16 16:52:39 2019
GPGPU-Sim uArch: cycles simulated: 331500  inst.: 6602144 (ipc=19.9) sim_rate=33513 (inst/sec) elapsed = 0:0:03:17 / Tue Apr 16 16:52:40 2019
GPGPU-Sim PTX: 6700000 instructions simulated : ctaid=(1,1,0) tid=(223,0,0)
GPGPU-Sim uArch: cycles simulated: 333000  inst.: 6629216 (ipc=19.9) sim_rate=33480 (inst/sec) elapsed = 0:0:03:18 / Tue Apr 16 16:52:41 2019
GPGPU-Sim uArch: cycles simulated: 335000  inst.: 6658016 (ipc=19.9) sim_rate=33457 (inst/sec) elapsed = 0:0:03:19 / Tue Apr 16 16:52:42 2019
GPGPU-Sim uArch: cycles simulated: 336500  inst.: 6681472 (ipc=19.9) sim_rate=33407 (inst/sec) elapsed = 0:0:03:20 / Tue Apr 16 16:52:43 2019
GPGPU-Sim uArch: cycles simulated: 338500  inst.: 6713856 (ipc=19.8) sim_rate=33402 (inst/sec) elapsed = 0:0:03:21 / Tue Apr 16 16:52:44 2019
GPGPU-Sim PTX: 6800000 instructions simulated : ctaid=(0,1,0) tid=(95,0,0)
GPGPU-Sim uArch: cycles simulated: 340000  inst.: 6736576 (ipc=19.8) sim_rate=33349 (inst/sec) elapsed = 0:0:03:22 / Tue Apr 16 16:52:45 2019
GPGPU-Sim uArch: cycles simulated: 342000  inst.: 6780832 (ipc=19.8) sim_rate=33403 (inst/sec) elapsed = 0:0:03:23 / Tue Apr 16 16:52:46 2019
GPGPU-Sim uArch: cycles simulated: 343500  inst.: 6802144 (ipc=19.8) sim_rate=33343 (inst/sec) elapsed = 0:0:03:24 / Tue Apr 16 16:52:47 2019
GPGPU-Sim PTX: 6900000 instructions simulated : ctaid=(1,0,0) tid=(31,0,0)
GPGPU-Sim uArch: cycles simulated: 345000  inst.: 6835584 (ipc=19.8) sim_rate=33344 (inst/sec) elapsed = 0:0:03:25 / Tue Apr 16 16:52:48 2019
GPGPU-Sim uArch: cycles simulated: 347000  inst.: 6871200 (ipc=19.8) sim_rate=33355 (inst/sec) elapsed = 0:0:03:26 / Tue Apr 16 16:52:49 2019
GPGPU-Sim uArch: cycles simulated: 348500  inst.: 6893344 (ipc=19.8) sim_rate=33301 (inst/sec) elapsed = 0:0:03:27 / Tue Apr 16 16:52:50 2019
GPGPU-Sim uArch: cycles simulated: 350000  inst.: 6917952 (ipc=19.8) sim_rate=33259 (inst/sec) elapsed = 0:0:03:28 / Tue Apr 16 16:52:51 2019
GPGPU-Sim PTX: 7000000 instructions simulated : ctaid=(3,2,0) tid=(31,0,0)
GPGPU-Sim uArch: cycles simulated: 352000  inst.: 6952096 (ipc=19.8) sim_rate=33263 (inst/sec) elapsed = 0:0:03:29 / Tue Apr 16 16:52:52 2019
GPGPU-Sim uArch: cycles simulated: 353500  inst.: 6980064 (ipc=19.7) sim_rate=33238 (inst/sec) elapsed = 0:0:03:30 / Tue Apr 16 16:52:53 2019
GPGPU-Sim uArch: cycles simulated: 355000  inst.: 7006208 (ipc=19.7) sim_rate=33204 (inst/sec) elapsed = 0:0:03:31 / Tue Apr 16 16:52:54 2019
GPGPU-Sim PTX: 7100000 instructions simulated : ctaid=(2,1,0) tid=(31,0,0)
GPGPU-Sim uArch: cycles simulated: 357000  inst.: 7044416 (ipc=19.7) sim_rate=33228 (inst/sec) elapsed = 0:0:03:32 / Tue Apr 16 16:52:55 2019
GPGPU-Sim uArch: cycles simulated: 358500  inst.: 7065504 (ipc=19.7) sim_rate=33171 (inst/sec) elapsed = 0:0:03:33 / Tue Apr 16 16:52:56 2019
GPGPU-Sim uArch: cycles simulated: 360000  inst.: 7094784 (ipc=19.7) sim_rate=33153 (inst/sec) elapsed = 0:0:03:34 / Tue Apr 16 16:52:57 2019
GPGPU-Sim PTX: 7200000 instructions simulated : ctaid=(2,0,0) tid=(223,0,0)
GPGPU-Sim uArch: cycles simulated: 362000  inst.: 7125824 (ipc=19.7) sim_rate=33143 (inst/sec) elapsed = 0:0:03:35 / Tue Apr 16 16:52:58 2019
GPGPU-Sim uArch: cycles simulated: 363500  inst.: 7149408 (ipc=19.7) sim_rate=33099 (inst/sec) elapsed = 0:0:03:36 / Tue Apr 16 16:52:59 2019
GPGPU-Sim uArch: cycles simulated: 365000  inst.: 7175776 (ipc=19.7) sim_rate=33068 (inst/sec) elapsed = 0:0:03:37 / Tue Apr 16 16:53:00 2019
GPGPU-Sim uArch: cycles simulated: 367000  inst.: 7209440 (ipc=19.6) sim_rate=33070 (inst/sec) elapsed = 0:0:03:38 / Tue Apr 16 16:53:01 2019
GPGPU-Sim PTX: 7300000 instructions simulated : ctaid=(9,0,0) tid=(31,0,0)
GPGPU-Sim uArch: cycles simulated: 368500  inst.: 7238176 (ipc=19.6) sim_rate=33051 (inst/sec) elapsed = 0:0:03:39 / Tue Apr 16 16:53:02 2019
GPGPU-Sim uArch: cycles simulated: 370500  inst.: 7270240 (ipc=19.6) sim_rate=33046 (inst/sec) elapsed = 0:0:03:40 / Tue Apr 16 16:53:03 2019
GPGPU-Sim uArch: cycles simulated: 372000  inst.: 7298080 (ipc=19.6) sim_rate=33022 (inst/sec) elapsed = 0:0:03:41 / Tue Apr 16 16:53:04 2019
GPGPU-Sim PTX: 7400000 instructions simulated : ctaid=(1,1,0) tid=(95,0,0)
GPGPU-Sim uArch: cycles simulated: 373500  inst.: 7323712 (ipc=19.6) sim_rate=32989 (inst/sec) elapsed = 0:0:03:42 / Tue Apr 16 16:53:05 2019
GPGPU-Sim uArch: cycles simulated: 375000  inst.: 7351360 (ipc=19.6) sim_rate=32965 (inst/sec) elapsed = 0:0:03:43 / Tue Apr 16 16:53:06 2019
GPGPU-Sim uArch: cycles simulated: 377000  inst.: 7384096 (ipc=19.6) sim_rate=32964 (inst/sec) elapsed = 0:0:03:44 / Tue Apr 16 16:53:07 2019
GPGPU-Sim uArch: cycles simulated: 378500  inst.: 7415424 (ipc=19.6) sim_rate=32957 (inst/sec) elapsed = 0:0:03:45 / Tue Apr 16 16:53:08 2019
GPGPU-Sim PTX: 7500000 instructions simulated : ctaid=(9,0,0) tid=(95,0,0)
GPGPU-Sim uArch: cycles simulated: 380000  inst.: 7442976 (ipc=19.6) sim_rate=32933 (inst/sec) elapsed = 0:0:03:46 / Tue Apr 16 16:53:09 2019
GPGPU-Sim uArch: cycles simulated: 382000  inst.: 7476416 (ipc=19.6) sim_rate=32935 (inst/sec) elapsed = 0:0:03:47 / Tue Apr 16 16:53:10 2019
GPGPU-Sim uArch: cycles simulated: 383500  inst.: 7503232 (ipc=19.6) sim_rate=32908 (inst/sec) elapsed = 0:0:03:48 / Tue Apr 16 16:53:11 2019
GPGPU-Sim PTX: 7600000 instructions simulated : ctaid=(10,1,0) tid=(31,0,0)
GPGPU-Sim uArch: cycles simulated: 385000  inst.: 7529216 (ipc=19.6) sim_rate=32878 (inst/sec) elapsed = 0:0:03:49 / Tue Apr 16 16:53:12 2019
GPGPU-Sim uArch: cycles simulated: 387000  inst.: 7566912 (ipc=19.6) sim_rate=32899 (inst/sec) elapsed = 0:0:03:50 / Tue Apr 16 16:53:13 2019
GPGPU-Sim uArch: cycles simulated: 388500  inst.: 7591264 (ipc=19.5) sim_rate=32862 (inst/sec) elapsed = 0:0:03:51 / Tue Apr 16 16:53:14 2019
GPGPU-Sim uArch: cycles simulated: 390000  inst.: 7613728 (ipc=19.5) sim_rate=32817 (inst/sec) elapsed = 0:0:03:52 / Tue Apr 16 16:53:15 2019
GPGPU-Sim PTX: 7700000 instructions simulated : ctaid=(2,1,0) tid=(159,0,0)
GPGPU-Sim uArch: cycles simulated: 392000  inst.: 7652800 (ipc=19.5) sim_rate=32844 (inst/sec) elapsed = 0:0:03:53 / Tue Apr 16 16:53:16 2019
GPGPU-Sim uArch: cycles simulated: 393500  inst.: 7678624 (ipc=19.5) sim_rate=32814 (inst/sec) elapsed = 0:0:03:54 / Tue Apr 16 16:53:17 2019
GPGPU-Sim uArch: cycles simulated: 395000  inst.: 7707008 (ipc=19.5) sim_rate=32795 (inst/sec) elapsed = 0:0:03:55 / Tue Apr 16 16:53:18 2019
GPGPU-Sim PTX: 7800000 instructions simulated : ctaid=(3,1,0) tid=(31,0,0)
GPGPU-Sim uArch: cycles simulated: 397000  inst.: 7742528 (ipc=19.5) sim_rate=32807 (inst/sec) elapsed = 0:0:03:56 / Tue Apr 16 16:53:19 2019
GPGPU-Sim uArch: cycles simulated: 398500  inst.: 7768640 (ipc=19.5) sim_rate=32779 (inst/sec) elapsed = 0:0:03:57 / Tue Apr 16 16:53:20 2019
GPGPU-Sim uArch: cycles simulated: 400000  inst.: 7793216 (ipc=19.5) sim_rate=32744 (inst/sec) elapsed = 0:0:03:58 / Tue Apr 16 16:53:21 2019
GPGPU-Sim PTX: 7900000 instructions simulated : ctaid=(1,1,0) tid=(31,0,0)
GPGPU-Sim uArch: cycles simulated: 402000  inst.: 7826624 (ipc=19.5) sim_rate=32747 (inst/sec) elapsed = 0:0:03:59 / Tue Apr 16 16:53:22 2019
GPGPU-Sim uArch: cycles simulated: 403500  inst.: 7853600 (ipc=19.5) sim_rate=32723 (inst/sec) elapsed = 0:0:04:00 / Tue Apr 16 16:53:23 2019
GPGPU-Sim uArch: cycles simulated: 405000  inst.: 7881344 (ipc=19.5) sim_rate=32702 (inst/sec) elapsed = 0:0:04:01 / Tue Apr 16 16:53:24 2019
GPGPU-Sim uArch: cycles simulated: 406500  inst.: 7902720 (ipc=19.4) sim_rate=32655 (inst/sec) elapsed = 0:0:04:02 / Tue Apr 16 16:53:25 2019
GPGPU-Sim PTX: 8000000 instructions simulated : ctaid=(6,0,0) tid=(223,0,0)
GPGPU-Sim uArch: cycles simulated: 408500  inst.: 7940704 (ipc=19.4) sim_rate=32677 (inst/sec) elapsed = 0:0:04:03 / Tue Apr 16 16:53:26 2019
GPGPU-Sim uArch: cycles simulated: 410000  inst.: 7966656 (ipc=19.4) sim_rate=32650 (inst/sec) elapsed = 0:0:04:04 / Tue Apr 16 16:53:27 2019
GPGPU-Sim uArch: cycles simulated: 411500  inst.: 7991648 (ipc=19.4) sim_rate=32618 (inst/sec) elapsed = 0:0:04:05 / Tue Apr 16 16:53:28 2019
GPGPU-Sim PTX: 8100000 instructions simulated : ctaid=(0,0,0) tid=(63,0,0)
GPGPU-Sim uArch: cycles simulated: 413500  inst.: 8026688 (ipc=19.4) sim_rate=32628 (inst/sec) elapsed = 0:0:04:06 / Tue Apr 16 16:53:29 2019
GPGPU-Sim uArch: cycles simulated: 415000  inst.: 8052288 (ipc=19.4) sim_rate=32600 (inst/sec) elapsed = 0:0:04:07 / Tue Apr 16 16:53:30 2019
GPGPU-Sim uArch: cycles simulated: 416500  inst.: 8075744 (ipc=19.4) sim_rate=32563 (inst/sec) elapsed = 0:0:04:08 / Tue Apr 16 16:53:31 2019
GPGPU-Sim uArch: cycles simulated: 418500  inst.: 8111616 (ipc=19.4) sim_rate=32576 (inst/sec) elapsed = 0:0:04:09 / Tue Apr 16 16:53:32 2019
GPGPU-Sim PTX: 8200000 instructions simulated : ctaid=(3,1,0) tid=(31,0,0)
GPGPU-Sim uArch: cycles simulated: 420000  inst.: 8138016 (ipc=19.4) sim_rate=32552 (inst/sec) elapsed = 0:0:04:10 / Tue Apr 16 16:53:33 2019
GPGPU-Sim uArch: cycles simulated: 421500  inst.: 8162912 (ipc=19.4) sim_rate=32521 (inst/sec) elapsed = 0:0:04:11 / Tue Apr 16 16:53:34 2019
GPGPU-Sim uArch: cycles simulated: 423500  inst.: 8199008 (ipc=19.4) sim_rate=32535 (inst/sec) elapsed = 0:0:04:12 / Tue Apr 16 16:53:35 2019
GPGPU-Sim PTX: 8300000 instructions simulated : ctaid=(0,0,0) tid=(223,0,0)
GPGPU-Sim uArch: cycles simulated: 425000  inst.: 8225408 (ipc=19.4) sim_rate=32511 (inst/sec) elapsed = 0:0:04:13 / Tue Apr 16 16:53:36 2019
GPGPU-Sim uArch: cycles simulated: 426500  inst.: 8252960 (ipc=19.4) sim_rate=32491 (inst/sec) elapsed = 0:0:04:14 / Tue Apr 16 16:53:37 2019
GPGPU-Sim uArch: cycles simulated: 428000  inst.: 8276736 (ipc=19.3) sim_rate=32457 (inst/sec) elapsed = 0:0:04:15 / Tue Apr 16 16:53:38 2019
GPGPU-Sim uArch: cycles simulated: 430000  inst.: 8310336 (ipc=19.3) sim_rate=32462 (inst/sec) elapsed = 0:0:04:16 / Tue Apr 16 16:53:39 2019
GPGPU-Sim PTX: 8400000 instructions simulated : ctaid=(9,0,0) tid=(159,0,0)
GPGPU-Sim uArch: cycles simulated: 431500  inst.: 8341024 (ipc=19.3) sim_rate=32455 (inst/sec) elapsed = 0:0:04:17 / Tue Apr 16 16:53:40 2019
GPGPU-Sim uArch: cycles simulated: 433000  inst.: 8362816 (ipc=19.3) sim_rate=32414 (inst/sec) elapsed = 0:0:04:18 / Tue Apr 16 16:53:41 2019
GPGPU-Sim uArch: cycles simulated: 435000  inst.: 8392352 (ipc=19.3) sim_rate=32402 (inst/sec) elapsed = 0:0:04:19 / Tue Apr 16 16:53:42 2019
GPGPU-Sim uArch: cycles simulated: 436500  inst.: 8415424 (ipc=19.3) sim_rate=32367 (inst/sec) elapsed = 0:0:04:20 / Tue Apr 16 16:53:43 2019
GPGPU-Sim PTX: 8500000 instructions simulated : ctaid=(3,0,0) tid=(159,0,0)
GPGPU-Sim uArch: cycles simulated: 438000  inst.: 8444608 (ipc=19.3) sim_rate=32354 (inst/sec) elapsed = 0:0:04:21 / Tue Apr 16 16:53:44 2019
GPGPU-Sim uArch: cycles simulated: 440000  inst.: 8477984 (ipc=19.3) sim_rate=32358 (inst/sec) elapsed = 0:0:04:22 / Tue Apr 16 16:53:45 2019
GPGPU-Sim uArch: cycles simulated: 441500  inst.: 8501536 (ipc=19.3) sim_rate=32325 (inst/sec) elapsed = 0:0:04:23 / Tue Apr 16 16:53:46 2019
GPGPU-Sim PTX: 8600000 instructions simulated : ctaid=(2,0,0) tid=(223,0,0)
GPGPU-Sim uArch: cycles simulated: 443000  inst.: 8524032 (ipc=19.2) sim_rate=32288 (inst/sec) elapsed = 0:0:04:24 / Tue Apr 16 16:53:47 2019
GPGPU-Sim uArch: cycles simulated: 445000  inst.: 8560544 (ipc=19.2) sim_rate=32303 (inst/sec) elapsed = 0:0:04:25 / Tue Apr 16 16:53:48 2019
GPGPU-Sim uArch: cycles simulated: 446500  inst.: 8582720 (ipc=19.2) sim_rate=32265 (inst/sec) elapsed = 0:0:04:26 / Tue Apr 16 16:53:49 2019
GPGPU-Sim uArch: cycles simulated: 448000  inst.: 8611712 (ipc=19.2) sim_rate=32253 (inst/sec) elapsed = 0:0:04:27 / Tue Apr 16 16:53:50 2019
GPGPU-Sim PTX: 8700000 instructions simulated : ctaid=(7,0,0) tid=(95,0,0)
GPGPU-Sim uArch: cycles simulated: 450000  inst.: 8642592 (ipc=19.2) sim_rate=32248 (inst/sec) elapsed = 0:0:04:28 / Tue Apr 16 16:53:51 2019
GPGPU-Sim uArch: cycles simulated: 451500  inst.: 8669824 (ipc=19.2) sim_rate=32229 (inst/sec) elapsed = 0:0:04:29 / Tue Apr 16 16:53:52 2019
GPGPU-Sim uArch: cycles simulated: 453000  inst.: 8692864 (ipc=19.2) sim_rate=32195 (inst/sec) elapsed = 0:0:04:30 / Tue Apr 16 16:53:53 2019
GPGPU-Sim PTX: 8800000 instructions simulated : ctaid=(7,2,0) tid=(31,0,0)
GPGPU-Sim uArch: cycles simulated: 455000  inst.: 8726816 (ipc=19.2) sim_rate=32202 (inst/sec) elapsed = 0:0:04:31 / Tue Apr 16 16:53:54 2019
GPGPU-Sim uArch: cycles simulated: 456500  inst.: 8754144 (ipc=19.2) sim_rate=32184 (inst/sec) elapsed = 0:0:04:32 / Tue Apr 16 16:53:55 2019
GPGPU-Sim uArch: cycles simulated: 458000  inst.: 8777408 (ipc=19.2) sim_rate=32151 (inst/sec) elapsed = 0:0:04:33 / Tue Apr 16 16:53:56 2019
GPGPU-Sim uArch: cycles simulated: 460000  inst.: 8807264 (ipc=19.1) sim_rate=32143 (inst/sec) elapsed = 0:0:04:34 / Tue Apr 16 16:53:57 2019
GPGPU-Sim PTX: 8900000 instructions simulated : ctaid=(10,0,0) tid=(31,0,0)
GPGPU-Sim uArch: cycles simulated: 461500  inst.: 8833120 (ipc=19.1) sim_rate=32120 (inst/sec) elapsed = 0:0:04:35 / Tue Apr 16 16:53:58 2019
GPGPU-Sim uArch: cycles simulated: 463000  inst.: 8855072 (ipc=19.1) sim_rate=32083 (inst/sec) elapsed = 0:0:04:36 / Tue Apr 16 16:53:59 2019
GPGPU-Sim uArch: cycles simulated: 465000  inst.: 8894016 (ipc=19.1) sim_rate=32108 (inst/sec) elapsed = 0:0:04:37 / Tue Apr 16 16:54:00 2019
GPGPU-Sim uArch: cycles simulated: 466500  inst.: 8911872 (ipc=19.1) sim_rate=32057 (inst/sec) elapsed = 0:0:04:38 / Tue Apr 16 16:54:01 2019
GPGPU-Sim PTX: 9000000 instructions simulated : ctaid=(8,0,0) tid=(31,0,0)
GPGPU-Sim uArch: cycles simulated: 468000  inst.: 8935200 (ipc=19.1) sim_rate=32025 (inst/sec) elapsed = 0:0:04:39 / Tue Apr 16 16:54:02 2019
GPGPU-Sim uArch: cycles simulated: 469500  inst.: 8966880 (ipc=19.1) sim_rate=32024 (inst/sec) elapsed = 0:0:04:40 / Tue Apr 16 16:54:03 2019
GPGPU-Sim uArch: cycles simulated: 471500  inst.: 8997280 (ipc=19.1) sim_rate=32018 (inst/sec) elapsed = 0:0:04:41 / Tue Apr 16 16:54:04 2019
GPGPU-Sim PTX: 9100000 instructions simulated : ctaid=(8,0,0) tid=(159,0,0)
GPGPU-Sim uArch: cycles simulated: 473000  inst.: 9024800 (ipc=19.1) sim_rate=32002 (inst/sec) elapsed = 0:0:04:42 / Tue Apr 16 16:54:05 2019
GPGPU-Sim uArch: cycles simulated: 474500  inst.: 9048352 (ipc=19.1) sim_rate=31972 (inst/sec) elapsed = 0:0:04:43 / Tue Apr 16 16:54:06 2019
GPGPU-Sim uArch: cycles simulated: 476500  inst.: 9082752 (ipc=19.1) sim_rate=31981 (inst/sec) elapsed = 0:0:04:44 / Tue Apr 16 16:54:07 2019
GPGPU-Sim uArch: cycles simulated: 478000  inst.: 9104704 (ipc=19.0) sim_rate=31946 (inst/sec) elapsed = 0:0:04:45 / Tue Apr 16 16:54:08 2019
GPGPU-Sim PTX: 9200000 instructions simulated : ctaid=(7,0,0) tid=(63,0,0)
GPGPU-Sim uArch: cycles simulated: 479500  inst.: 9133728 (ipc=19.0) sim_rate=31936 (inst/sec) elapsed = 0:0:04:46 / Tue Apr 16 16:54:09 2019
GPGPU-Sim uArch: cycles simulated: 481000  inst.: 9155936 (ipc=19.0) sim_rate=31902 (inst/sec) elapsed = 0:0:04:47 / Tue Apr 16 16:54:10 2019
GPGPU-Sim uArch: cycles simulated: 483000  inst.: 9189760 (ipc=19.0) sim_rate=31908 (inst/sec) elapsed = 0:0:04:48 / Tue Apr 16 16:54:11 2019
GPGPU-Sim uArch: cycles simulated: 484500  inst.: 9214752 (ipc=19.0) sim_rate=31884 (inst/sec) elapsed = 0:0:04:49 / Tue Apr 16 16:54:12 2019
GPGPU-Sim PTX: 9300000 instructions simulated : ctaid=(0,1,0) tid=(95,0,0)
GPGPU-Sim uArch: cycles simulated: 486000  inst.: 9236992 (ipc=19.0) sim_rate=31851 (inst/sec) elapsed = 0:0:04:50 / Tue Apr 16 16:54:13 2019
GPGPU-Sim uArch: cycles simulated: 488000  inst.: 9270016 (ipc=19.0) sim_rate=31855 (inst/sec) elapsed = 0:0:04:51 / Tue Apr 16 16:54:14 2019
GPGPU-Sim uArch: cycles simulated: 489500  inst.: 9294144 (ipc=19.0) sim_rate=31829 (inst/sec) elapsed = 0:0:04:52 / Tue Apr 16 16:54:15 2019
GPGPU-Sim PTX: 9400000 instructions simulated : ctaid=(6,1,0) tid=(95,0,0)
GPGPU-Sim uArch: cycles simulated: 491500  inst.: 9323232 (ipc=19.0) sim_rate=31819 (inst/sec) elapsed = 0:0:04:53 / Tue Apr 16 16:54:16 2019
GPGPU-Sim uArch: cycles simulated: 493000  inst.: 9347680 (ipc=19.0) sim_rate=31794 (inst/sec) elapsed = 0:0:04:54 / Tue Apr 16 16:54:17 2019
GPGPU-Sim uArch: cycles simulated: 494500  inst.: 9376960 (ipc=19.0) sim_rate=31786 (inst/sec) elapsed = 0:0:04:55 / Tue Apr 16 16:54:18 2019
GPGPU-Sim uArch: cycles simulated: 496500  inst.: 9409920 (ipc=19.0) sim_rate=31790 (inst/sec) elapsed = 0:0:04:56 / Tue Apr 16 16:54:19 2019
GPGPU-Sim PTX: 9500000 instructions simulated : ctaid=(7,1,0) tid=(31,0,0)
GPGPU-Sim uArch: cycles simulated: 498000  inst.: 9436896 (ipc=18.9) sim_rate=31774 (inst/sec) elapsed = 0:0:04:57 / Tue Apr 16 16:54:20 2019
GPGPU-Sim uArch: cycles simulated: 499500  inst.: 9460320 (ipc=18.9) sim_rate=31746 (inst/sec) elapsed = 0:0:04:58 / Tue Apr 16 16:54:21 2019
GPGPU-Sim uArch: cycles simulated: 501500  inst.: 9497152 (ipc=18.9) sim_rate=31763 (inst/sec) elapsed = 0:0:04:59 / Tue Apr 16 16:54:22 2019
GPGPU-Sim PTX: 9600000 instructions simulated : ctaid=(3,2,0) tid=(95,0,0)
GPGPU-Sim uArch: cycles simulated: 503000  inst.: 9521184 (ipc=18.9) sim_rate=31737 (inst/sec) elapsed = 0:0:05:00 / Tue Apr 16 16:54:23 2019
GPGPU-Sim uArch: cycles simulated: 504500  inst.: 9549440 (ipc=18.9) sim_rate=31725 (inst/sec) elapsed = 0:0:05:01 / Tue Apr 16 16:54:24 2019
GPGPU-Sim uArch: cycles simulated: 506000  inst.: 9573568 (ipc=18.9) sim_rate=31700 (inst/sec) elapsed = 0:0:05:02 / Tue Apr 16 16:54:25 2019
GPGPU-Sim uArch: cycles simulated: 508000  inst.: 9606528 (ipc=18.9) sim_rate=31704 (inst/sec) elapsed = 0:0:05:03 / Tue Apr 16 16:54:26 2019
GPGPU-Sim PTX: 9700000 instructions simulated : ctaid=(10,0,0) tid=(159,0,0)
GPGPU-Sim uArch: cycles simulated: 509500  inst.: 9631808 (ipc=18.9) sim_rate=31683 (inst/sec) elapsed = 0:0:05:04 / Tue Apr 16 16:54:27 2019
[...]
dram[5]:  1.221854  1.222869  1.219591  1.221946  1.206174  1.213955  1.218247  1.222059  1.213467  1.212225  1.219142  1.220586  1.219246  1.221756  1.218469  1.225777 
average row locality = 2763168/2279624 = 1.212116
number of total memory accesses made:
dram[0]:         0         0         0         0         0         0         0         0         0         0         0         0         0         0         0         0 
dram[1]:         0         0         0         0         0         0         0         0         0         0         0         0         0         0         0         0 
dram[2]:         0         0         0         0         0         0         0         0         0         0         0         0         0         0         0         0 
dram[3]:         0         0         0         0         0         0         0         0         0         0         0         0         0         0         0         0 
dram[4]:         0         0         0         0         0         0         0         0         0         0         0         0         0         0         0         0 
dram[5]:         0         0         0         0         0         0         0         0         0         0         0         0         0         0         0         0 
total accesses: 0
min_bank_accesses = 0!
min_chip_accesses = 0!
number of total read accesses:
dram[0]:     27990     27877     28381     28290     28211     28325     29219     29076     28688     28703     28604     28570     28078     27961     28694     28458 
dram[1]:     28015     28110     28547     28736     27995     28229     29199     29427     28552     28723     28756     28758     28096     28063     28639     28569 
dram[2]:     28453     28697     28933     29193     28459     29210     29907     30283     29000     29190     29059     29613     28417     28961     29057     29709 
dram[3]:     28459     28488     29008     28841     28378     28798     29369     29709     28999     29203     28983     28970     28406     28467     28905     29128 
dram[4]:     28417     28739     28631     28893     28477     29107     29292     29937     28778     29225     28820     29257     28211     28800     28803     29044 
dram[5]:     28338     28287     29047     27974     28444     28585     29696     29085     29014     28914     29246     28176     28425     28515     29083     28325 
total reads: 2761376
bank skew: 30283/27877 = 1.09
chip skew: 466141/455125 = 1.02
number of total write accesses:
dram[0]:        64        64         0         0         0         0         0         0         0         0         0         0        20        20        64        64 
dram[1]:        64        64         0         0         0         0         0         0         0         0         0         0        20        20        64        64 
dram[2]:        64        64         0         0         0         0         0         0         0         0         0         0        20        24        64        64 
dram[3]:        64        64         0         0         0         0         0         0         0         0         0         0        20        24        64        64 
dram[4]:        64        64         0         0         0         0         0         0         0         0         0         0        20        24        64        64 
dram[5]:        64        64         0         0         0         0         0         0         0         0         0         0        20        24        64        64 
total reads: 1792
min_bank_accesses = 0!
chip skew: 300/296 = 1.01
average mf latency per bank:
dram[0]:       4345      4476      5258      5553      4354      4440      4287      4392      4324      4453      4303      4401      4333      4459      4307      4399
dram[1]:       4475      4493      5556      5495      4565      4509      4422      4396      4494      4515      4412      4407      4458      4515      4456      4453
dram[2]:       4270      4381      5247      5458      4335      4363      4136      4311      4284      4395      4223      4315      4281      4380      4196      4254
dram[3]:       4341      4446      5318      5496      4437      4451      4315      4386      4386      4406      4291      4433      4364      4454      4314      4369
dram[4]:       4351      4190      5454      4946      4375      4164      4350      4095      4387      4228      4313      4130      4396      4183      4311      4161
dram[5]:       4371      3838      5347      3859      4388      3825      4272      3778      4354      3849      4228      3834      4343      3801      4257      3852
maximum mf latency per bank:
dram[0]:       1013      1026      1032      1020      1042      1051      1083      1048      1040      1025      1084      1013      1008      1035      1131      1028
dram[1]:       1030      1121      1130      1119      1010      1038      1051      1043      1025      1027      1060      1120      1026      1022      1071      1028
dram[2]:       1028      1055      1036      1087      1109      1066      1074      1085      1103      1061      1052      1053      1012      1044      1085      1030
dram[3]:       1061      1062      1115      1093      1078      1082      1056      1069      1104      1064      1074      1058      1125      1069      1032      1076
dram[4]:       1057      1047      1043      1103      1031       979      1012      1008      1012      1038      1071      1056      1076      1076      1051      1022
dram[5]:       1058       893      1013       941       998      1008      1002       920       980       972       984       887      1012       917      1074       924

Number of Memory Banks Accessed per Memory Operation per Warp (from 0):
0	0	0	0	0	0	0	0	0	0	0	0	0	0	0	0	0	0	0	0	0	0	0	0	0	0	0	0	0	0	0	0	0	0	0	0	0	0	0	0	0	0	0	0	0	0	0	0	0	0	0	0	0	0	0	0	0	0	0	0	0	0	0	0	0	0	0	0	0	0	0	0	0	0	0	0	0	0	0	0	0	0	0	0	0	0	0	0	0	0	0	0	0	0	0	0	
Average # of Memory Banks Accessed per Memory Operation per Warp=-nan

position of mrq chosen
0	0	0	0	0	0	0	0	0	0	0	0	0	0	0	0	

average position of mrq chosen = -nan
Memory Partition 0: 
Cache L2_bank_000:
MSHR contents

Cache L2_bank_001:
MSHR contents

In Dram Latency Queue (total = 0): 
DRAM[0]: 16 bks, busW=4 BL=8 CL=12, tRRD=2 tCCD=6, tRCD=12 tRAS=28 tRP=12 tRC=40
n_cmd=35706155 n_nop=34044189 n_act=375570 n_pre=375554 n_req=455421 n_rd=910250 n_write=592 bw_util=0.05102
n_activity=13979932 dram_eff=0.1303
bk0: 55980a 34984171i bk1: 55754a 34989040i bk2: 56762a 34973461i bk3: 56580a 34980897i bk4: 56422a 34975893i bk5: 56650a 34976597i bk6: 58438a 34948651i bk7: 58152a 34956946i bk8: 57376a 34960803i bk9: 57406a 34963302i bk10: 57208a 34965221i bk11: 57140a 34970433i bk12: 56156a 34980212i bk13: 55922a 34985267i bk14: 57388a 34964701i bk15: 56916a 34968642i 
dram_util_bins: 0 0 0 0 0 0 0 0 0 0
dram_eff_bins: 0 0 0 0 0 0 0 0 0 0
mrqq: max=16 avg=0.0117544
Memory Partition 1: 
Cache L2_bank_002:
MSHR contents

Cache L2_bank_003:
MSHR contents
MSHR: tag=0x81e4bb80, atomic=0 1 entries : 0x7f038d469840 :  mf: uid=393277701, sid01:w15, part=1, addr=0x81e4bb80, load , size=128, unknown  status = IN_PARTITION_DRAM (27050116), 

In Dram Latency Queue (total = 0): 
DRAM[1]: 16 bks, busW=4 BL=8 CL=12, tRRD=2 tCCD=6, tRCD=12 tRAS=28 tRP=12 tRC=40
n_cmd=35706155 n_nop=34039143 n_act=376804 n_pre=376788 n_req=456710 n_rd=912828 n_write=592 bw_util=0.05116
n_activity=14051384 dram_eff=0.13
bk0: 56030a 34986409i bk1: 56220a 34983425i bk2: 57094a 34973120i bk3: 57472a 34971598i bk4: 55990a 34981290i bk5: 56458a 34979010i bk6: 58398a 34953424i bk7: 58854a 34947091i bk8: 57104a 34965102i bk9: 57446a 34965848i bk10: 57512a 34964275i bk11: 57516a 34963892i bk12: 56192a 34979551i bk13: 56126a 34983007i bk14: 57278a 34967732i bk15: 57138a 34964868i 
dram_util_bins: 0 0 0 0 0 0 0 0 0 0
dram_eff_bins: 0 0 0 0 0 0 0 0 0 0
mrqq: max=16 avg=0.0103018
Memory Partition 2: 
Cache L2_bank_004:
MSHR contents

Cache L2_bank_005:
MSHR contents

In Dram Latency Queue (total = 0): 
DRAM[2]: 16 bks, busW=4 BL=8 CL=12, tRRD=2 tCCD=6, tRCD=12 tRAS=28 tRP=12 tRC=40
n_cmd=35706155 n_nop=34001739 n_act=385775 n_pre=385759 n_req=466441 n_rd=932282 n_write=600 bw_util=0.05225
n_activity=14111550 dram_eff=0.1322
bk0: 56906a 34968963i bk1: 57394a 34964745i bk2: 57866a 34955465i bk3: 58386a 34950813i bk4: 56918a 34968225i bk5: 58420a 34951494i bk6: 59814a 34926456i bk7: 60566a 34920544i bk8: 58000a 34949317i bk9: 58380a 34942974i bk10: 58118a 34950884i bk11: 59226a 34935482i bk12: 56834a 34965953i bk13: 57922a 34950435i bk14: 58114a 34949029i bk15: 59418a 34931517i 
dram_util_bins: 0 0 0 0 0 0 0 0 0 0
dram_eff_bins: 0 0 0 0 0 0 0 0 0 0
mrqq: max=16 avg=0.0133967
Memory Partition 3: 
Cache L2_bank_006:
MSHR contents

Cache L2_bank_007:
MSHR contents

In Dram Latency Queue (total = 0): 
DRAM[3]: 16 bks, busW=4 BL=8 CL=12, tRRD=2 tCCD=6, tRCD=12 tRAS=28 tRP=12 tRC=40
n_cmd=35706155 n_nop=34018129 n_act=381610 n_pre=381594 n_req=462411 n_rd=924222 n_write=600 bw_util=0.0518
n_activity=14081083 dram_eff=0.1314
bk0: 56918a 34969151i bk1: 56976a 34972606i bk2: 58016a 34959028i bk3: 57682a 34962079i bk4: 56756a 34972002i bk5: 57596a 34965980i bk6: 58738a 34944885i bk7: 59418a 34941410i bk8: 57998a 34952240i bk9: 58406a 34949343i bk10: 57966a 34954784i bk11: 57940a 34958231i bk12: 56812a 34968974i bk13: 56934a 34970548i bk14: 57810a 34954858i bk15: 58256a 34954220i 
dram_util_bins: 0 0 0 0 0 0 0 0 0 0
dram_eff_bins: 0 0 0 0 0 0 0 0 0 0
mrqq: max=16 avg=0.0113883
Memory Partition 4: 
Cache L2_bank_008:
MSHR contents

Cache L2_bank_009:
MSHR contents

In Dram Latency Queue (total = 0): 
DRAM[4]: 16 bks, busW=4 BL=8 CL=12, tRRD=2 tCCD=6, tRCD=12 tRAS=28 tRP=12 tRC=40
n_cmd=35706155 n_nop=34015075 n_act=382817 n_pre=382801 n_req=462731 n_rd=924862 n_write=600 bw_util=0.05184
n_activity=14030458 dram_eff=0.1319
bk0: 56834a 34970929i bk1: 57478a 34964205i bk2: 57262a 34963003i bk3: 57786a 34960213i bk4: 56954a 34967528i bk5: 58214a 34954557i bk6: 58584a 34944775i bk7: 59874a 34929860i bk8: 57556a 34953454i bk9: 58450a 34943862i bk10: 57640a 34959996i bk11: 58514a 34947774i bk12: 56422a 34970321i bk13: 57600a 34954900i bk14: 57606a 34955666i bk15: 58088a 34947893i 
dram_util_bins: 0 0 0 0 0 0 0 0 0 0
dram_eff_bins: 0 0 0 0 0 0 0 0 0 0
mrqq: max=16 avg=0.0124426
Memory Partition 5: 
Cache L2_bank_010:
MSHR contents

Cache L2_bank_011:
MSHR contents

In Dram Latency Queue (total = 0): 
DRAM[5]: 16 bks, busW=4 BL=8 CL=12, tRRD=2 tCCD=6, tRCD=12 tRAS=28 tRP=12 tRC=40
n_cmd=35706155 n_nop=34033165 n_act=377049 n_pre=377033 n_req=459454 n_rd=918308 n_write=600 bw_util=0.05147
n_activity=13961691 dram_eff=0.1316
bk0: 56676a 34978312i bk1: 56574a 34982267i bk2: 58094a 34961477i bk3: 55948a 34991461i bk4: 56888a 34970515i bk5: 57170a 34972565i bk6: 59392a 34942928i bk7: 58170a 34962193i bk8: 58028a 34958195i bk9: 57828a 34961330i bk10: 58492a 34953218i bk11: 56352a 34983494i bk12: 56850a 34974748i bk13: 57030a 34974520i bk14: 58166a 34955574i bk15: 56650a 34980148i 
dram_util_bins: 0 0 0 0 0 0 0 0 0 0
dram_eff_bins: 0 0 0 0 0 0 0 0 0 0
mrqq: max=16 avg=0.0103126

========= L2 cache stats =========
L2_cache_bank[0]: Access = 2815997, Miss = 227865, Miss_rate = 0.081, Pending_hits = 15, Reservation_fails = 1610
L2_cache_bank[1]: Access = 2824743, Miss = 227260, Miss_rate = 0.080, Pending_hits = 6, Reservation_fails = 1368
L2_cache_bank[2]: Access = 2829612, Miss = 227799, Miss_rate = 0.081, Pending_hits = 18, Reservation_fails = 231
L2_cache_bank[3]: Access = 2832132, Miss = 228615, Miss_rate = 0.081, Pending_hits = 8, Reservation_fails = 28
L2_cache_bank[4]: Access = 2827667, Miss = 231285, Miss_rate = 0.082, Pending_hits = 14, Reservation_fails = 888
L2_cache_bank[5]: Access = 2835799, Miss = 234856, Miss_rate = 0.083, Pending_hits = 4, Reservation_fails = 1259
L2_cache_bank[6]: Access = 2827961, Miss = 230507, Miss_rate = 0.082, Pending_hits = 10, Reservation_fails = 57
L2_cache_bank[7]: Access = 2822817, Miss = 231604, Miss_rate = 0.082, Pending_hits = 1, Reservation_fails = 98
L2_cache_bank[8]: Access = 2830595, Miss = 229429, Miss_rate = 0.081, Pending_hits = 5, Reservation_fails = 311
L2_cache_bank[9]: Access = 2805244, Miss = 233002, Miss_rate = 0.083, Pending_hits = 4, Reservation_fails = 155
L2_cache_bank[10]: Access = 2827097, Miss = 231293, Miss_rate = 0.082, Pending_hits = 10, Reservation_fails = 100
L2_cache_bank[11]: Access = 2743383, Miss = 227861, Miss_rate = 0.083, Pending_hits = 0, Reservation_fails = 46
L2_total_cache_accesses = 33823047
L2_total_cache_misses = 2761376
L2_total_cache_miss_rate = 0.0816
L2_total_cache_pending_hits = 95
L2_total_cache_reservation_fails = 6151
L2_total_cache_breakdown:
	L2_cache_stats_breakdown[GLOBAL_ACC_R][HIT] = 31061508
	L2_cache_stats_breakdown[GLOBAL_ACC_R][HIT_RESERVED] = 82
	L2_cache_stats_breakdown[GLOBAL_ACC_R][MISS] = 2759575
	L2_cache_stats_breakdown[GLOBAL_ACC_R][RESERVATION_FAIL] = 5737
	L2_cache_stats_breakdown[CONST_ACC_R][HIT] = 11
	L2_cache_stats_breakdown[CONST_ACC_R][HIT_RESERVED] = 3
	L2_cache_stats_breakdown[CONST_ACC_R][MISS] = 1
	L2_cache_stats_breakdown[CONST_ACC_R][RESERVATION_FAIL] = 95
	L2_cache_stats_breakdown[GLOBAL_ACC_W][MISS] = 1792
	L2_cache_stats_breakdown[INST_ACC_R][HIT] = 57
	L2_cache_stats_breakdown[INST_ACC_R][HIT_RESERVED] = 10
	L2_cache_stats_breakdown[INST_ACC_R][MISS] = 8
	L2_cache_stats_breakdown[INST_ACC_R][RESERVATION_FAIL] = 319
L2_cache_data_port_util = 0.383
L2_cache_fill_port_util = 0.034

icnt_total_pkts_mem_to_simt=169108037
icnt_total_pkts_simt_to_mem=33830215
LD_mem_lat_dist  0 0 0 0 0 0 0 0 0 0 0 0 0 0 0 0 0 0 0 0 0 0 0 0 0 0 0
ST_mem_lat_dist  0 0 0 0 0 0 0 0 0 0 0 0 0 0 0 0 0 0 0 0 0 0 0 0 0 0 0
----------------------------Interconnect-DETAILS--------------------------------
Class 0:
Packet latency average = 43.407
	minimum = 6
	maximum = 604
Network latency average = 31.9133
	minimum = 6
	maximum = 537
Slowest packet = 33851118
Flit latency average = 19.8163
	minimum = 6
	maximum = 537
Slowest flit = 140152380
Fragmentation average = 0.000130254
	minimum = 0
	maximum = 338
Injected packet rate average = 0.0926174
	minimum = 0.0777618 (at node 14)
	maximum = 0.104808 (at node 20)
Accepted packet rate average = 0.0926174
	minimum = 0.0777618 (at node 14)
	maximum = 0.104808 (at node 20)
Injected flit rate average = 0.277852
	minimum = 0.0777783 (at node 14)
	maximum = 0.524018 (at node 20)
Accepted flit rate average= 0.277852
	minimum = 0.101441 (at node 26)
	maximum = 0.449227 (at node 1)
Injected packet length average = 3
Accepted packet length average = 3
Total in-flight flits = 0 (0 measured)
====== Overall Traffic Statistics ======
====== Traffic class 0 ======
Packet latency average = 43.3768 (2 samples)
	minimum = 6 (2 samples)
	maximum = 600.5 (2 samples)
Network latency average = 31.9083 (2 samples)
	minimum = 6 (2 samples)
	maximum = 554 (2 samples)
Flit latency average = 19.8113 (2 samples)
	minimum = 6 (2 samples)
	maximum = 554 (2 samples)
Fragmentation average = 9.27398e-05 (2 samples)
	minimum = 0 (2 samples)
	maximum = 367 (2 samples)
Injected packet rate average = 0.0926211 (2 samples)
	minimum = 0.0776721 (2 samples)
	maximum = 0.104835 (2 samples)
Accepted packet rate average = 0.0926211 (2 samples)
	minimum = 0.0776721 (2 samples)
	maximum = 0.104835 (2 samples)
Injected flit rate average = 0.277863 (2 samples)
	minimum = 0.0776886 (2 samples)
	maximum = 0.524152 (2 samples)
Accepted flit rate average = 0.277863 (2 samples)
	minimum = 0.101441 (2 samples)
	maximum = 0.449262 (2 samples)
Injected packet size average = 3 (2 samples)
Accepted packet size average = 3 (2 samples)
Hops average = 1 (2 samples)
----------------------------END-of-Interconnect-DETAILS-------------------------


gpgpu_simulation_time = 0 days, 3 hrs, 47 min, 51 sec (13671 sec)
gpgpu_simulation_rate = 35248 (inst/sec)
gpgpu_simulation_rate = 1978 (cycle/sec)
GPGPU-Sim: synchronize waiting for inactive GPU simulation
GPGPU-Sim API: Stream Manager State
GPGPU-Sim: detected inactive GPU simulation thread
iterated 2 times

================= Centroid Coordinates =================
0: 1.23 613.61 527.61 0.00 0.00 0.01 0.00 0.00 0.00 0.00 0.03 0.01 0.00 0.00 0.00 8.15 11.06 0.00 0.00 0.00 0.00 0.99 0.01 0.22 139.44 193.37 0.83 0.02 0.06 0.01 0.00 0.00 0.00 0.00 1.00 1.23 613.61 527.61 0.00 0.00 0.01 0.00 0.00 0.00 0.00 0.03 0.01 0.00 0.00 0.00 8.15 11.06 0.00 0.00 0.00 0.00 0.99 0.01 0.22 139.44 193.37 0.83 0.02 0.06 0.01 0.00 0.00 0.00 0.00 1.23 613.61 527.61 0.00 0.00 0.01 0.00 0.00 0.00 0.00 0.03 0.01 0.00 0.00 0.00 8.15 11.06 0.00 0.00 0.00 0.00 0.99 0.01 0.22 139.44 193.37 0.83 0.02 0.06 0.01 0.00 0.00 0.00 0.00 1.00 1.23 613.61 527.61 0.00 0.00 0.01 0.00 0.00 0.00 0.00 0.03 0.01 0.00 0.00 0.00 8.15 11.06 0.00 0.00 0.00 0.00 0.99 0.01 0.22 139.44 193.37 0.83 0.02 0.06 0.01 0.00 0.00 0.00 0.00

1: 1.45 15177.44 214.67 0.00 0.00 0.01 0.00 0.00 0.00 0.00 0.00 0.02 0.01 0.02 0.00 4.59 5.07 0.00 0.01 0.00 0.00 0.98 0.03 0.25 129.85 98.10 0.52 0.05 0.20 0.01 0.00 0.00 0.00 0.00 1.00 1.45 15177.44 214.67 0.00 0.00 0.01 0.00 0.00 0.00 0.00 0.00 0.02 0.01 0.02 0.00 4.59 5.07 0.00 0.01 0.00 0.00 0.98 0.03 0.25 129.85 98.10 0.52 0.05 0.20 0.01 0.00 0.00 0.00 0.00 1.45 15177.44 214.67 0.00 0.00 0.01 0.00 0.00 0.00 0.00 0.00 0.02 0.01 0.02 0.00 4.59 5.07 0.00 0.01 0.00 0.00 0.98 0.03 0.25 129.85 98.10 0.52 0.05 0.20 0.01 0.00 0.00 0.00 0.00 1.00 1.45 15177.44 214.67 0.00 0.00 0.01 0.00 0.00 0.00 0.00 0.00 0.02 0.01 0.02 0.00 4.59 5.07 0.00 0.01 0.00 0.00 0.98 0.03 0.25 129.85 98.10 0.52 0.05 0.20 0.01 0.00 0.00 0.00 0.00

2: 3.74 600.16 40.36 0.01 0.00 0.00 0.00 0.00 0.00 0.00 0.00 0.00 0.00 0.00 0.00 338.62 287.90 0.24 0.24 0.03 0.03 0.75 0.04 0.03 240.64 180.98 0.72 0.05 0.58 0.00 0.24 0.24 0.03 0.03 1.00 3.74 600.16 40.36 0.01 0.00 0.00 0.00 0.00 0.00 0.00 0.00 0.00 0.00 0.00 0.00 338.62 287.90 0.24 0.24 0.03 0.03 0.75 0.04 0.03 240.64 180.98 0.72 0.05 0.58 0.00 0.24 0.24 0.03 0.03 3.74 600.16 40.36 0.01 0.00 0.00 0.00 0.00 0.00 0.00 0.00 0.00 0.00 0.00 0.00 338.62 287.90 0.24 0.24 0.03 0.03 0.75 0.04 0.03 240.64 180.98 0.72 0.05 0.58 0.00 0.24 0.24 0.03 0.03 1.00 3.74 600.16 40.36 0.01 0.00 0.00 0.00 0.00 0.00 0.00 0.00 0.00 0.00 0.00 0.00 338.62 287.90 0.24 0.24 0.03 0.03 0.75 0.04 0.03 240.64 180.98 0.72 0.05 0.58 0.00 0.24 0.24 0.03 0.03

3: 21.48 303.12 20528.08 0.00 0.00 0.03 0.00 0.16 0.00 0.00 0.17 0.01 0.00 0.00 0.00 7.59 11.10 0.00 0.01 0.00 0.00 1.00 0.00 0.13 130.51 246.12 0.99 0.00 0.06 0.02 0.00 0.00 0.00 0.00 1.00 21.48 303.12 20528.08 0.00 0.00 0.03 0.00 0.16 0.00 0.00 0.17 0.01 0.00 0.00 0.00 7.59 11.10 0.00 0.01 0.00 0.00 1.00 0.00 0.13 130.51 246.12 0.99 0.00 0.06 0.02 0.00 0.00 0.00 0.00 21.48 303.12 20528.08 0.00 0.00 0.03 0.00 0.16 0.00 0.00 0.17 0.01 0.00 0.00 0.00 7.59 11.10 0.00 0.01 0.00 0.00 1.00 0.00 0.13 130.51 246.12 0.99 0.00 0.06 0.02 0.00 0.00 0.00 0.00 1.00 21.48 303.12 20528.08 0.00 0.00 0.03 0.00 0.16 0.00 0.00 0.17 0.01 0.00 0.00 0.00 7.59 11.10 0.00 0.01 0.00 0.00 1.00 0.00 0.13 130.51 246.12 0.99 0.00 0.06 0.02 0.00 0.00 0.00 0.00

4: 0.31 264.14 2561.85 0.00 0.00 0.06 0.00 0.00 0.00 0.00 0.00 0.00 0.00 0.01 0.00 9.81 13.92 0.00 0.00 0.00 0.00 1.00 0.00 0.10 132.64 245.89 0.99 0.00 0.05 0.02 0.00 0.00 0.00 0.00 1.00 0.31 264.14 2561.85 0.00 0.00 0.06 0.00 0.00 0.00 0.00 0.00 0.00 0.00 0.01 0.00 9.81 13.92 0.00 0.00 0.00 0.00 1.00 0.00 0.10 132.64 245.89 0.99 0.00 0.05 0.02 0.00 0.00 0.00 0.00 0.31 264.14 2561.85 0.00 0.00 0.06 0.00 0.00 0.00 0.00 0.00 0.00 0.00 0.01 0.00 9.81 13.92 0.00 0.00 0.00 0.00 1.00 0.00 0.10 132.64 245.89 0.99 0.00 0.05 0.02 0.00 0.00 0.00 0.00 1.00 0.31 264.14 2561.85 0.00 0.00 0.06 0.00 0.00 0.00 0.00 0.00 0.00 0.00 0.01 0.00 9.81 13.92 0.00 0.00 0.00 0.00 1.00 0.00 0.10 132.64 245.89 0.99 0.00 0.05 0.02 0.00 0.00 0.00 0.00

Number of Iteration: 1
Time for I/O: 0.00000sec
Time for Entire Clustering: 0.00000sec
Root Mean Squared Error: 55443.000
