

        *** GPGPU-Sim Simulator Version 3.2.2  [build 0] ***


GPGPU-Sim PTX: simulation mode 0 (can change with PTX_SIM_MODE_FUNC environment variable:
               1=functional simulation only, 0=detailed performance simulator)
GPGPU-Sim: Configuration options:

-network_mode                           1 # Interconnection network mode
-inter_config_file   config_fermi_islip.icnt # Interconnection network config file
-gpgpu_ptx_use_cuobjdump                    1 # Use cuobjdump to extract ptx and sass from binaries
-gpgpu_experimental_lib_support                    0 # Try to extract code from cuda libraries [Broken because of unknown cudaGetExportTable]
-gpgpu_ptx_convert_to_ptxplus                    0 # Convert SASS (native ISA) to ptxplus and run ptxplus
-gpgpu_ptx_force_max_capability                   20 # Force maximum compute capability
-gpgpu_ptx_inst_debug_to_file                    0 # Dump executed instructions' debug information to file
-gpgpu_ptx_inst_debug_file       inst_debug.txt # Executed instructions' debug output file
-gpgpu_ptx_inst_debug_thread_uid                    1 # Thread UID for executed instructions' debug output
-gpgpu_simd_model                       1 # 1 = post-dominator
-gpgpu_shader_core_pipeline              1536:32 # shader core pipeline config, i.e., {<nthread>:<warpsize>}
-gpgpu_tex_cache:l1  4:128:24,L:R:m:N:L,F:128:4,128:2 # per-shader L1 texture cache  (READ-ONLY) config  {<nsets>:<bsize>:<assoc>,<rep>:<wr>:<alloc>:<wr_alloc>,<mshr>:<N>:<merge>,<mq>:<rf>}
-gpgpu_const_cache:l1 64:64:2,L:R:f:N:L,A:2:32,4 # per-shader L1 constant memory cache  (READ-ONLY) config  {<nsets>:<bsize>:<assoc>,<rep>:<wr>:<alloc>:<wr_alloc>,<mshr>:<N>:<merge>,<mq>} 
-gpgpu_cache:il1     4:128:4,L:R:f:N:L,A:2:32,4 # shader L1 instruction cache config  {<nsets>:<bsize>:<assoc>,<rep>:<wr>:<alloc>:<wr_alloc>,<mshr>:<N>:<merge>,<mq>} 
-gpgpu_cache:dl1     64:128:2,L:L:m:N:H,A:32:8,8 # per-shader L1 data cache config  {<nsets>:<bsize>:<assoc>,<rep>:<wr>:<alloc>:<wr_alloc>,<mshr>:<N>:<merge>,<mq> | none}
-gpgpu_cache:dl1PrefL1                 none # per-shader L1 data cache config  {<nsets>:<bsize>:<assoc>,<rep>:<wr>:<alloc>:<wr_alloc>,<mshr>:<N>:<merge>,<mq> | none}
-gpgpu_cache:dl1PreShared                 none # per-shader L1 data cache config  {<nsets>:<bsize>:<assoc>,<rep>:<wr>:<alloc>:<wr_alloc>,<mshr>:<N>:<merge>,<mq> | none}
-gmem_skip_L1D                          0 # global memory access skip L1D cache (implements -Xptxas -dlcm=cg, default=no skip)
-gpgpu_perfect_mem                      0 # enable perfect memory mode (no cache miss)
-n_regfile_gating_group                    4 # group of lanes that should be read/written together)
-gpgpu_clock_gated_reg_file                    0 # enable clock gated reg file for power calculations
-gpgpu_clock_gated_lanes                    0 # enable clock gated lanes for power calculations
-gpgpu_shader_registers                32768 # Number of registers per shader core. Limits number of concurrent CTAs. (default 8192)
-gpgpu_shader_cta                       8 # Maximum number of concurrent CTAs in shader (default 8)
-gpgpu_num_cta_barriers                   16 # Maximum number of named barriers per CTA (default 16)
-gpgpu_n_clusters                      15 # number of processing clusters
-gpgpu_n_cores_per_cluster                    1 # number of simd cores per cluster
-gpgpu_n_cluster_ejection_buffer_size                    8 # number of packets in ejection buffer
-gpgpu_n_ldst_response_buffer_size                    2 # number of response packets in ld/st unit ejection buffer
-gpgpu_shmem_size                   16384 # Size of shared memory per shader core (default 16kB)
-gpgpu_shmem_size                   49152 # Size of shared memory per shader core (default 16kB)
-gpgpu_shmem_size_PrefL1                16384 # Size of shared memory per shader core (default 16kB)
-gpgpu_shmem_size_PrefShared                16384 # Size of shared memory per shader core (default 16kB)
-gpgpu_shmem_num_banks                   32 # Number of banks in the shared memory in each shader core (default 16)
-gpgpu_shmem_limited_broadcast                    0 # Limit shared memory to do one broadcast per cycle (default on)
-gpgpu_shmem_warp_parts                    1 # Number of portions a warp is divided into for shared memory bank conflict check 
-gpgpu_warpdistro_shader                   -1 # Specify which shader core to collect the warp size distribution from
-gpgpu_warp_issue_shader                    0 # Specify which shader core to collect the warp issue distribution from
-gpgpu_local_mem_map                    1 # Mapping from local memory space address to simulated GPU physical address space (default = enabled)
-gpgpu_num_reg_banks                   16 # Number of register banks (default = 8)
-gpgpu_reg_bank_use_warp_id                    0 # Use warp ID in mapping registers to banks (default = off)
-gpgpu_operand_collector_num_units_sp                    6 # number of collector units (default = 4)
-gpgpu_operand_collector_num_units_sfu                    8 # number of collector units (default = 4)
-gpgpu_operand_collector_num_units_mem                    2 # number of collector units (default = 2)
-gpgpu_operand_collector_num_units_gen                    0 # number of collector units (default = 0)
-gpgpu_operand_collector_num_in_ports_sp                    2 # number of collector unit in ports (default = 1)
-gpgpu_operand_collector_num_in_ports_sfu                    1 # number of collector unit in ports (default = 1)
-gpgpu_operand_collector_num_in_ports_mem                    1 # number of collector unit in ports (default = 1)
-gpgpu_operand_collector_num_in_ports_gen                    0 # number of collector unit in ports (default = 0)
-gpgpu_operand_collector_num_out_ports_sp                    2 # number of collector unit in ports (default = 1)
-gpgpu_operand_collector_num_out_ports_sfu                    1 # number of collector unit in ports (default = 1)
-gpgpu_operand_collector_num_out_ports_mem                    1 # number of collector unit in ports (default = 1)
-gpgpu_operand_collector_num_out_ports_gen                    0 # number of collector unit in ports (default = 0)
-gpgpu_coalesce_arch                   13 # Coalescing arch (default = 13, anything else is off for now)
-gpgpu_num_sched_per_core                    2 # Number of warp schedulers per core
-gpgpu_max_insn_issue_per_warp                    1 # Max number of instructions that can be issued per warp in one cycle by scheduler
-gpgpu_simt_core_sim_order                    1 # Select the simulation order of cores in a cluster (0=Fix, 1=Round-Robin)
-gpgpu_pipeline_widths        2,1,1,2,1,1,2 # Pipeline widths ID_OC_SP,ID_OC_SFU,ID_OC_MEM,OC_EX_SP,OC_EX_SFU,OC_EX_MEM,EX_WB
-gpgpu_num_sp_units                     2 # Number of SP units (default=1)
-gpgpu_num_sfu_units                    1 # Number of SF units (default=1)
-gpgpu_num_mem_units                    1 # Number if ldst units (default=1) WARNING: not hooked up to anything
-gpgpu_scheduler                      gto # Scheduler configuration: < lrr | gto | two_level_active > If two_level_active:<num_active_warps>:<inner_prioritization>:<outer_prioritization>For complete list of prioritization values see shader.h enum scheduler_prioritization_typeDefault: gto
-gpgpu_dram_scheduler                    1 # 0 = fifo, 1 = FR-FCFS (defaul)
-gpgpu_dram_partition_queues              8:8:8:8 # i2$:$2d:d2$:$2i
-l2_ideal                               0 # Use a ideal L2 cache that always hit
-gpgpu_cache:dl2     64:128:8,L:B:m:W:L,A:32:4,4:0,32 # unified banked L2 data cache config  {<nsets>:<bsize>:<assoc>,<rep>:<wr>:<alloc>:<wr_alloc>,<mshr>:<N>:<merge>,<mq>}
-gpgpu_cache:dl2_texture_only                    0 # L2 cache used for texture only
-gpgpu_n_mem                            6 # number of memory modules (e.g. memory controllers) in gpu
-gpgpu_n_sub_partition_per_mchannel                    2 # number of memory subpartition in each memory module
-gpgpu_n_mem_per_ctrlr                    2 # number of memory chips per memory controller
-gpgpu_memlatency_stat                   14 # track and display latency statistics 0x2 enables MC, 0x4 enables queue logs
-gpgpu_frfcfs_dram_sched_queue_size                   16 # 0 = unlimited (default); # entries per chip
-gpgpu_dram_return_queue_size                  116 # 0 = unlimited (default); # entries per chip
-gpgpu_dram_buswidth                    4 # default = 4 bytes (8 bytes per cycle at DDR)
-gpgpu_dram_burst_length                    8 # Burst length of each DRAM request (default = 4 data bus cycle)
-dram_data_command_freq_ratio                    4 # Frequency ratio between DRAM data bus and command bus (default = 2 times, i.e. DDR)
-gpgpu_dram_timing_opt nbk=16:CCD=2:RRD=6:RCD=12:RAS=28:RP=12:RC=40: CL=12:WL=4:CDLR=5:WR=12:nbkgrp=4:CCDL=3:RTPL=2 # DRAM timing parameters = {nbk:tCCD:tRRD:tRCD:tRAS:tRP:tRC:CL:WL:tCDLR:tWR:nbkgrp:tCCDL:tRTPL}
-rop_latency                          120 # ROP queue latency (default 85)
-dram_latency                         100 # DRAM latency (default 30)
-gpgpu_mem_addr_mapping dramid@8;00000000.00000000.00000000.00000000.0000RRRR.RRRRRRRR.BBBCCCCB.CCSSSSSS # mapping memory address to dram model {dramid@<start bit>;<memory address map>}
-gpgpu_mem_addr_test                    0 # run sweep test to check address mapping for aliased address
-gpgpu_mem_address_mask                    1 # 0 = old addressing mask, 1 = new addressing mask, 2 = new add. mask + flipped bank sel and chip sel bits
-gpuwattch_xml_file  gpuwattch_gtx480.xml # GPUWattch XML file
-power_simulation_enabled                    1 # Turn on power simulator (1=On, 0=Off)
-power_per_cycle_dump                    0 # Dump detailed power output each cycle
-power_trace_enabled                    0 # produce a file for the power trace (1=On, 0=Off)
-power_trace_zlevel                     6 # Compression level of the power trace output log (0=no comp, 9=highest)
-steady_power_levels_enabled                    0 # produce a file for the steady power levels (1=On, 0=Off)
-steady_state_definition                  8:4 # allowed deviation:number of samples
-gpgpu_max_cycle                        0 # terminates gpu simulation early (0 = no limit)
-gpgpu_max_insn                         0 # terminates gpu simulation early (0 = no limit)
-gpgpu_max_cta                          0 # terminates gpu simulation early (0 = no limit)
-gpgpu_runtime_stat                   500 # display runtime statistics such as dram utilization {<freq>:<flag>}
-liveness_message_freq                    1 # Minimum number of seconds between simulation liveness messages (0 = always print)
-gpgpu_flush_l1_cache                    0 # Flush L1 cache at the end of each kernel call
-gpgpu_flush_l2_cache                    0 # Flush L2 cache at the end of each kernel call
-gpgpu_deadlock_detect                    1 # Stop the simulation at deadlock (1=on (default), 0=off)
-gpgpu_ptx_instruction_classification                    0 # if enabled will classify ptx instruction types per kernel (Max 255 kernels now)
-gpgpu_ptx_sim_mode                     0 # Select between Performance (default) or Functional simulation (1)
-gpgpu_clock_domains 700.0:700.0:700.0:924.0 # Clock Domain Frequencies in MhZ {<Core Clock>:<ICNT Clock>:<L2 Clock>:<DRAM Clock>}
-gpgpu_max_concurrent_kernel                    8 # maximum kernels that can run concurrently on GPU
-gpgpu_cflog_interval                    0 # Interval between each snapshot in control flow logger
-visualizer_enabled                     0 # Turn on visualizer output (1=On, 0=Off)
-visualizer_outputfile                 NULL # Specifies the output log file for visualizer
-visualizer_zlevel                      6 # Compression level of the visualizer output log (0=no comp, 9=highest)
-trace_enabled                          0 # Turn on traces
-trace_components                    none # comma seperated list of traces to enable. Complete list found in trace_streams.tup. Default none
-trace_sampling_core                    0 # The core which is printed using CORE_DPRINTF. Default 0
-trace_sampling_memory_partition                   -1 # The memory partition which is printed using MEMPART_DPRINTF. Default -1 (i.e. all)
-enable_ptx_file_line_stats                    1 # Turn on PTX source line statistic profiling. (1 = On)
-ptx_line_stats_filename gpgpu_inst_stats.txt # Output file for PTX source line statistics.
-save_embedded_ptx                      0 # saves ptx files embedded in binary as <n>.ptx
-keep                                   0 # keep intermediate files created by GPGPU-Sim when interfacing with external programs
-gpgpu_ptx_save_converted_ptxplus                    0 # Saved converted ptxplus to a file
-ptx_opcode_latency_int         4,13,4,5,145 # Opcode latencies for integers <ADD,MAX,MUL,MAD,DIV>Default 1,1,19,25,145
-ptx_opcode_latency_fp          4,13,4,5,39 # Opcode latencies for single precision floating points <ADD,MAX,MUL,MAD,DIV>Default 1,1,1,1,30
-ptx_opcode_latency_dp         8,19,8,8,330 # Opcode latencies for double precision floating points <ADD,MAX,MUL,MAD,DIV>Default 8,8,8,8,335
-ptx_opcode_initiation_int            1,2,2,1,8 # Opcode initiation intervals for integers <ADD,MAX,MUL,MAD,DIV>Default 1,1,4,4,32
-ptx_opcode_initiation_fp            1,2,1,1,4 # Opcode initiation intervals for single precision floating points <ADD,MAX,MUL,MAD,DIV>Default 1,1,1,1,5
-ptx_opcode_initiation_dp         8,16,8,8,130 # Opcode initiation intervals for double precision floating points <ADD,MAX,MUL,MAD,DIV>Default 8,8,8,8,130
DRAM Timing Options:
nbk                                    16 # number of banks
CCD                                     2 # column to column delay
RRD                                     6 # minimal delay between activation of rows in different banks
RCD                                    12 # row to column delay
RAS                                    28 # time needed to activate row
RP                                     12 # time needed to precharge (deactivate) row
RC                                     40 # row cycle time
CDLR                                    5 # switching from write to read (changes tWTR)
WR                                     12 # last data-in to row precharge
CL                                     12 # CAS latency
WL                                      4 # Write latency
nbkgrp                                  4 # number of bank groups
CCDL                                    3 # column to column delay between accesses to different bank groups
RTPL                                    2 # read to precharge delay between accesses to different bank groups
Total number of memory sub partition = 12
addr_dec_mask[CHIP]  = 0000000000000000 	high:64 low:0
addr_dec_mask[BK]    = 000000000000e100 	high:16 low:8
addr_dec_mask[ROW]   = 000000000fff0000 	high:28 low:16
addr_dec_mask[COL]   = 0000000000001eff 	high:13 low:0
addr_dec_mask[BURST] = 000000000000003f 	high:6 low:0
sub_partition_id_mask = 0000000000000100
GPGPU-Sim uArch: clock freqs: 700000000.000000:700000000.000000:700000000.000000:924000000.000000
GPGPU-Sim uArch: clock periods: 0.00000000142857142857:0.00000000142857142857:0.00000000142857142857:0.00000000108225108225
*** Initializing Memory Statistics ***
GPGPU-Sim uArch: interconnect node map (shaderID+MemID to icntID)
GPGPU-Sim uArch: Memory nodes ID start from index: 15
GPGPU-Sim uArch:    0   1   2   3   4
GPGPU-Sim uArch:    5   6   7   8   9
GPGPU-Sim uArch:   10  11  12  13  14
GPGPU-Sim uArch:   15  16  17  18  19
GPGPU-Sim uArch:   20  21  22  23  24
GPGPU-Sim uArch:   25  26
GPGPU-Sim uArch: interconnect node reverse map (icntID to shaderID+MemID)
GPGPU-Sim uArch: Memory nodes start from ID: 15
GPGPU-Sim uArch:    0   1   2   3   4
GPGPU-Sim uArch:    5   6   7   8   9
GPGPU-Sim uArch:   10  11  12  13  14
GPGPU-Sim uArch:   15  16  17  18  19
GPGPU-Sim uArch:   20  21  22  23  24
GPGPU-Sim uArch:   25  26
ee89055bc58e180b7b05d1332bfe7767  /home/scratch/adwait/applications/benchmarks/CUDA/LPS/gpgpu_ptx_sim__LPS
GPGPU-Sim uArch: performance model initialization complete.
GPGPU-Sim PTX: __cudaRegisterFatBinary, fat_cubin_handle = 1, filename=laplace3d.cu
self exe links to: /home/scratch/adwait/applications/benchmarks/CUDA/LPS/gpgpu_ptx_sim__LPS
Running md5sum using "md5sum /home/scratch/adwait/applications/benchmarks/CUDA/LPS/gpgpu_ptx_sim__LPS "
Running cuobjdump using "$CUDA_INSTALL_PATH/bin/cuobjdump -ptx -elf -sass /home/scratch/adwait/applications/benchmarks/CUDA/LPS/gpgpu_ptx_sim__LPS > _cuobjdump_complete_output_dHQZxm"
Parsing file _cuobjdump_complete_output_dHQZxm
######### cuobjdump parser ########
## Adding new section ELF
Adding arch: sm_20
Adding identifier: laplace3d.cu
## Adding new section PTX
Adding ptx filename: _cuobjdump_1.ptx
Adding arch: sm_20
Adding identifier: laplace3d.cu
Done parsing!!!
GPGPU-Sim PTX: __cudaRegisterFunction _Z13GPU_laplace3diiiiPfS_ : hostFun 0x0x40566f, fat_cubin_handle = 1
GPGPU-Sim PTX: allocating shared region for "__cuda___cuda_local_var_33528_33_non_const_u132" from 0x0 to 0x990 (shared memory space)
GPGPU-Sim PTX: instruction assembly for function '_Z13GPU_laplace3diiiiPfS_'...   done.
GPGPU-Sim PTX: finding reconvergence points for '_Z13GPU_laplace3diiiiPfS_'...
GPGPU-Sim PTX: Finding dominators for '_Z13GPU_laplace3diiiiPfS_'...
GPGPU-Sim PTX: Finding immediate dominators for '_Z13GPU_laplace3diiiiPfS_'...
GPGPU-Sim PTX: Finding postdominators for '_Z13GPU_laplace3diiiiPfS_'...
GPGPU-Sim PTX: Finding immediate postdominators for '_Z13GPU_laplace3diiiiPfS_'...
GPGPU-Sim PTX: pre-decoding instructions for '_Z13GPU_laplace3diiiiPfS_'...
GPGPU-Sim PTX: reconvergence points for _Z13GPU_laplace3diiiiPfS_...
GPGPU-Sim PTX:  1 (potential) branch divergence @  PC=0x060 (_1.ptx:82) @!%p1 bra $Lt_0_14338;
GPGPU-Sim PTX:    immediate post dominator      @  PC=0x230 (_1.ptx:154) add.s32 %r57, %r37, %r12;
GPGPU-Sim PTX:  2 (potential) branch divergence @  PC=0x080 (_1.ptx:86) @%p2 bra $Lt_0_14850;
GPGPU-Sim PTX:    immediate post dominator      @  PC=0x120 (_1.ptx:113) add.s32 %r30, %r16, 1;
GPGPU-Sim PTX:  3 (potential) branch divergence @  PC=0x0a0 (_1.ptx:92) bra.uni $Lt_0_14594;
GPGPU-Sim PTX:    immediate post dominator      @  PC=0x120 (_1.ptx:113) add.s32 %r30, %r16, 1;
GPGPU-Sim PTX:  4 (potential) branch divergence @  PC=0x200 (_1.ptx:145) bra.uni $Lt_0_14082;
GPGPU-Sim PTX:    immediate post dominator      @  PC=0x230 (_1.ptx:154) add.s32 %r57, %r37, %r12;
GPGPU-Sim PTX:  5 (potential) branch divergence @  PC=0x290 (_1.ptx:166) @%p5 bra $Lt_0_15106;
GPGPU-Sim PTX:    immediate post dominator      @  PC=0x308 (_1.ptx:183) mov.u64 %rd1, __cuda___cuda_local_var_33528_33_non_const_u132;
GPGPU-Sim PTX:  6 (potential) branch divergence @  PC=0x320 (_1.ptx:186) @!%p6 bra $Lt_0_15618;
GPGPU-Sim PTX:    immediate post dominator      @  PC=0x380 (_1.ptx:200) ld.param.s32 %r73, [__cudaparm__Z13GPU_laplace3diiiiPfS__NZ];
GPGPU-Sim PTX:  7 (potential) branch divergence @  PC=0x398 (_1.ptx:203) @%p7 bra $Lt_0_16130;
GPGPU-Sim PTX:    immediate post dominator      @  PC=0x6d8 (_1.ptx:335) exit;
GPGPU-Sim PTX:  8 (potential) branch divergence @  PC=0x408 (_1.ptx:219) @%p8 bra $Lt_0_17410;
GPGPU-Sim PTX:    immediate post dominator      @  PC=0x4a0 (_1.ptx:245) @!%p6 bra $Lt_0_18434;
GPGPU-Sim PTX:  9 (potential) branch divergence @  PC=0x468 (_1.ptx:235) @%p9 bra $Lt_0_17410;
GPGPU-Sim PTX:    immediate post dominator      @  PC=0x4a0 (_1.ptx:245) @!%p6 bra $Lt_0_18434;
GPGPU-Sim PTX: 10 (potential) branch divergence @  PC=0x4a0 (_1.ptx:245) @!%p6 bra $Lt_0_18434;
GPGPU-Sim PTX:    immediate post dominator      @  PC=0x548 (_1.ptx:273) bar.sync 0;
GPGPU-Sim PTX: 11 (potential) branch divergence @  PC=0x510 (_1.ptx:262) @%p10 bra $Lt_0_18434;
GPGPU-Sim PTX:    immediate post dominator      @  PC=0x548 (_1.ptx:273) bar.sync 0;
GPGPU-Sim PTX: 12 (potential) branch divergence @  PC=0x560 (_1.ptx:276) @%p11 bra $Lt_0_18946;
GPGPU-Sim PTX:    immediate post dominator      @  PC=0x6b8 (_1.ptx:329) bar.sync 0;
GPGPU-Sim PTX: 13 (potential) branch divergence @  PC=0x578 (_1.ptx:280) @%p12 bra $Lt_0_20738;
GPGPU-Sim PTX:    immediate post dominator      @  PC=0x688 (_1.ptx:321) ld.param.u64 %rd35, [__cudaparm__Z13GPU_laplace3diiiiPfS__d_u2];
GPGPU-Sim PTX: 14 (potential) branch divergence @  PC=0x588 (_1.ptx:282) @%p13 bra $Lt_0_20738;
GPGPU-Sim PTX:    immediate post dominator      @  PC=0x688 (_1.ptx:321) ld.param.u64 %rd35, [__cudaparm__Z13GPU_laplace3diiiiPfS__d_u2];
GPGPU-Sim PTX: 15 (potential) branch divergence @  PC=0x5a0 (_1.ptx:285) @%p14 bra $Lt_0_20738;
GPGPU-Sim PTX:    immediate post dominator      @  PC=0x688 (_1.ptx:321) ld.param.u64 %rd35, [__cudaparm__Z13GPU_laplace3diiiiPfS__d_u2];
GPGPU-Sim PTX: 16 (potential) branch divergence @  PC=0x5b0 (_1.ptx:287) @%p15 bra $Lt_0_20738;
GPGPU-Sim PTX:    immediate post dominator      @  PC=0x688 (_1.ptx:321) ld.param.u64 %rd35, [__cudaparm__Z13GPU_laplace3diiiiPfS__d_u2];
GPGPU-Sim PTX: 17 (potential) branch divergence @  PC=0x5c8 (_1.ptx:290) @%p16 bra $Lt_0_20738;
GPGPU-Sim PTX:    immediate post dominator      @  PC=0x688 (_1.ptx:321) ld.param.u64 %rd35, [__cudaparm__Z13GPU_laplace3diiiiPfS__d_u2];
GPGPU-Sim PTX: 18 (potential) branch divergence @  PC=0x5d8 (_1.ptx:292) @%p17 bra $L_0_12546;
GPGPU-Sim PTX:    immediate post dominator      @  PC=0x688 (_1.ptx:321) ld.param.u64 %rd35, [__cudaparm__Z13GPU_laplace3diiiiPfS__d_u2];
GPGPU-Sim PTX: 19 (potential) branch divergence @  PC=0x600 (_1.ptx:300) bra.uni $L_0_12290;
GPGPU-Sim PTX:    immediate post dominator      @  PC=0x688 (_1.ptx:321) ld.param.u64 %rd35, [__cudaparm__Z13GPU_laplace3diiiiPfS__d_u2];
GPGPU-Sim PTX: 20 (potential) branch divergence @  PC=0x6d0 (_1.ptx:332) @%p18 bra $Lt_0_16642;
GPGPU-Sim PTX:    immediate post dominator      @  PC=0x6d8 (_1.ptx:335) exit;
GPGPU-Sim PTX: ... end of reconvergence points for _Z13GPU_laplace3diiiiPfS_
GPGPU-Sim PTX: ... done pre-decoding instructions for '_Z13GPU_laplace3diiiiPfS_'.
GPGPU-Sim PTX: finished parsing EMBEDDED .ptx file _1.ptx
Adding _cuobjdump_1.ptx with cubin handle 1
GPGPU-Sim PTX: extracting embedded .ptx to temporary file "_ptx_9HipK3"
Running: cat _ptx_9HipK3 | sed 's/.version 1.5/.version 1.4/' | sed 's/, texmode_independent//' | sed 's/\(\.extern \.const\[1\] .b8 \w\+\)\[\]/\1\[1\]/' | sed 's/const\[.\]/const\[0\]/g' > _ptx2_fciaXK
GPGPU-Sim PTX: generating ptxinfo using "$CUDA_INSTALL_PATH/bin/ptxas --gpu-name=sm_20 -v _ptx2_fciaXK --output-file  /dev/null 2> _ptx_9HipK3info"
GPGPU-Sim PTX: Kernel '_Z13GPU_laplace3diiiiPfS_' : regs=17, lmem=0, smem=2448, cmem=64
GPGPU-Sim PTX: removing ptxinfo using "rm -f _ptx_9HipK3 _ptx2_fciaXK _ptx_9HipK3info"
GPGPU-Sim PTX: loading globals with explicit initializers... 
GPGPU-Sim PTX: finished loading globals (0 bytes total).
GPGPU-Sim PTX: loading constants with explicit initializers...  done.

Grid dimensions: 100 x 100 x 100
GPGPU-Sim PTX: cudaMallocPitch (width = 400)
GPGPU-Sim PTX: cudaMallocPitch (width = 400)
GPGPU-Sim: synchronize waiting for inactive GPU simulation
GPGPU-Sim API: Stream Manager State
GPGPU-Sim: detected inactive GPU simulation thread

Copy u1 to device: 217.229004 (ms) 

 dimGrid  = 4 25 1 
 dimBlock = 32 4 1 
GPGPU-Sim: synchronize waiting for inactive GPU simulation
GPGPU-Sim API: Stream Manager State
GPGPU-Sim: detected inactive GPU simulation thread

GPGPU-Sim PTX: cudaLaunch for 0x0x40566f (mode=performance simulation) on stream 0
GPGPU-Sim PTX: pushing kernel '_Z13GPU_laplace3diiiiPfS_' to stream 0, gridDim= (4,25,1) blockDim = (32,4,1) 
kernel '_Z13GPU_laplace3diiiiPfS_' transfer to GPU hardware scheduler
GPGPU-Sim uArch: Shader 1 bind to kernel 1 '_Z13GPU_laplace3diiiiPfS_'
GPGPU-Sim uArch: CTA/core = 8, limited by: cta_limit
GPGPU-Sim uArch: core:  1, cta: 0 initialized @(1,0)
GPGPU-Sim uArch: Shader 2 bind to kernel 1 '_Z13GPU_laplace3diiiiPfS_'
GPGPU-Sim uArch: core:  2, cta: 0 initialized @(1,0)
GPGPU-Sim uArch: Shader 3 bind to kernel 1 '_Z13GPU_laplace3diiiiPfS_'
GPGPU-Sim uArch: core:  3, cta: 0 initialized @(1,0)
GPGPU-Sim uArch: Shader 4 bind to kernel 1 '_Z13GPU_laplace3diiiiPfS_'
GPGPU-Sim uArch: core:  4, cta: 0 initialized @(1,0)
GPGPU-Sim uArch: Shader 5 bind to kernel 1 '_Z13GPU_laplace3diiiiPfS_'
GPGPU-Sim uArch: core:  5, cta: 0 initialized @(1,0)
GPGPU-Sim uArch: Shader 6 bind to kernel 1 '_Z13GPU_laplace3diiiiPfS_'
GPGPU-Sim uArch: core:  6, cta: 0 initialized @(1,0)
GPGPU-Sim uArch: Shader 7 bind to kernel 1 '_Z13GPU_laplace3diiiiPfS_'
GPGPU-Sim uArch: core:  7, cta: 0 initialized @(1,0)
GPGPU-Sim uArch: Shader 8 bind to kernel 1 '_Z13GPU_laplace3diiiiPfS_'
GPGPU-Sim uArch: core:  8, cta: 0 initialized @(1,0)
GPGPU-Sim uArch: Shader 9 bind to kernel 1 '_Z13GPU_laplace3diiiiPfS_'
GPGPU-Sim uArch: core:  9, cta: 0 initialized @(1,0)
GPGPU-Sim uArch: Shader 10 bind to kernel 1 '_Z13GPU_laplace3diiiiPfS_'
GPGPU-Sim uArch: core: 10, cta: 0 initialized @(1,0)
GPGPU-Sim uArch: Shader 11 bind to kernel 1 '_Z13GPU_laplace3diiiiPfS_'
GPGPU-Sim uArch: core: 11, cta: 0 initialized @(1,0)
GPGPU-Sim uArch: Shader 12 bind to kernel 1 '_Z13GPU_laplace3diiiiPfS_'
GPGPU-Sim uArch: core: 12, cta: 0 initialized @(1,0)
GPGPU-Sim uArch: Shader 13 bind to kernel 1 '_Z13GPU_laplace3diiiiPfS_'
GPGPU-Sim uArch: core: 13, cta: 0 initialized @(1,0)
GPGPU-Sim uArch: Shader 14 bind to kernel 1 '_Z13GPU_laplace3diiiiPfS_'
GPGPU-Sim uArch: core: 14, cta: 0 initialized @(1,0)
GPGPU-Sim uArch: Shader 0 bind to kernel 1 '_Z13GPU_laplace3diiiiPfS_'
GPGPU-Sim uArch: core:  0, cta: 0 initialized @(1,0)
GPGPU-Sim uArch: core:  1, cta: 1 initialized @(2,0)
GPGPU-Sim uArch: core:  2, cta: 1 initialized @(2,0)
GPGPU-Sim uArch: core:  3, cta: 1 initialized @(2,0)
GPGPU-Sim uArch: core:  4, cta: 1 initialized @(2,0)
GPGPU-Sim uArch: core:  5, cta: 1 initialized @(2,0)
GPGPU-Sim uArch: core:  6, cta: 1 initialized @(2,0)
GPGPU-Sim uArch: core:  7, cta: 1 initialized @(2,0)
GPGPU-Sim uArch: core:  8, cta: 1 initialized @(2,0)
GPGPU-Sim uArch: core:  9, cta: 1 initialized @(2,0)
GPGPU-Sim uArch: core: 10, cta: 1 initialized @(2,0)
GPGPU-Sim uArch: core: 11, cta: 1 initialized @(2,0)
GPGPU-Sim uArch: core: 12, cta: 1 initialized @(2,0)
GPGPU-Sim uArch: core: 13, cta: 1 initialized @(2,0)
GPGPU-Sim uArch: core: 14, cta: 1 initialized @(2,0)
GPGPU-Sim uArch: core:  0, cta: 1 initialized @(2,0)
GPGPU-Sim uArch: core:  1, cta: 2 initialized @(3,0)
GPGPU-Sim uArch: core:  2, cta: 2 initialized @(3,0)
GPGPU-Sim uArch: core:  3, cta: 2 initialized @(3,0)
GPGPU-Sim uArch: core:  4, cta: 2 initialized @(3,0)
GPGPU-Sim uArch: core:  5, cta: 2 initialized @(3,0)
GPGPU-Sim uArch: core:  6, cta: 2 initialized @(3,0)
GPGPU-Sim uArch: core:  7, cta: 2 initialized @(3,0)
GPGPU-Sim uArch: core:  8, cta: 2 initialized @(3,0)
GPGPU-Sim uArch: core:  9, cta: 2 initialized @(3,0)
GPGPU-Sim uArch: core: 10, cta: 2 initialized @(3,0)
GPGPU-Sim uArch: core: 11, cta: 2 initialized @(3,0)
GPGPU-Sim uArch: core: 12, cta: 2 initialized @(3,0)
GPGPU-Sim uArch: core: 13, cta: 2 initialized @(3,0)
GPGPU-Sim uArch: core: 14, cta: 2 initialized @(3,0)
GPGPU-Sim uArch: core:  0, cta: 2 initialized @(3,0)
GPGPU-Sim uArch: core:  1, cta: 3 initialized @(4,0)
GPGPU-Sim uArch: core:  2, cta: 3 initialized @(4,0)
GPGPU-Sim uArch: core:  3, cta: 3 initialized @(4,0)
GPGPU-Sim uArch: core:  4, cta: 3 initialized @(4,0)
GPGPU-Sim uArch: core:  5, cta: 3 initialized @(4,0)
GPGPU-Sim uArch: core:  6, cta: 3 initialized @(4,0)
GPGPU-Sim uArch: core:  7, cta: 3 initialized @(4,0)
GPGPU-Sim uArch: core:  8, cta: 3 initialized @(4,0)
GPGPU-Sim uArch: core:  9, cta: 3 initialized @(4,0)
GPGPU-Sim uArch: core: 10, cta: 3 initialized @(4,0)
GPGPU-Sim uArch: core: 11, cta: 3 initialized @(4,0)
GPGPU-Sim uArch: core: 12, cta: 3 initialized @(4,0)
GPGPU-Sim uArch: core: 13, cta: 3 initialized @(4,0)
GPGPU-Sim uArch: core: 14, cta: 3 initialized @(4,0)
GPGPU-Sim uArch: core:  0, cta: 3 initialized @(4,0)
GPGPU-Sim uArch: core:  1, cta: 4 initialized @(5,0)
GPGPU-Sim uArch: core:  2, cta: 4 initialized @(5,0)
GPGPU-Sim uArch: core:  3, cta: 4 initialized @(5,0)
GPGPU-Sim uArch: core:  4, cta: 4 initialized @(5,0)
GPGPU-Sim uArch: core:  5, cta: 4 initialized @(5,0)
GPGPU-Sim uArch: core:  6, cta: 4 initialized @(5,0)
GPGPU-Sim uArch: core:  7, cta: 4 initialized @(5,0)
GPGPU-Sim uArch: core:  8, cta: 4 initialized @(5,0)
GPGPU-Sim uArch: core:  9, cta: 4 initialized @(5,0)
GPGPU-Sim uArch: core: 10, cta: 4 initialized @(5,0)
GPGPU-Sim uArch: core: 11, cta: 4 initialized @(5,0)
GPGPU-Sim uArch: core: 12, cta: 4 initialized @(5,0)
GPGPU-Sim uArch: core: 13, cta: 4 initialized @(5,0)
GPGPU-Sim uArch: core: 14, cta: 4 initialized @(5,0)
GPGPU-Sim uArch: core:  0, cta: 4 initialized @(5,0)
GPGPU-Sim uArch: core:  1, cta: 5 initialized @(6,0)
GPGPU-Sim uArch: core:  2, cta: 5 initialized @(6,0)
GPGPU-Sim uArch: core:  3, cta: 5 initialized @(6,0)
GPGPU-Sim uArch: core:  4, cta: 5 initialized @(6,0)
GPGPU-Sim uArch: core:  5, cta: 5 initialized @(6,0)
GPGPU-Sim uArch: core:  6, cta: 5 initialized @(6,0)
GPGPU-Sim uArch: core:  7, cta: 5 initialized @(6,0)
GPGPU-Sim uArch: core:  8, cta: 5 initialized @(6,0)
GPGPU-Sim uArch: core:  9, cta: 5 initialized @(6,0)
GPGPU-Sim uArch: core: 10, cta: 5 initialized @(6,0)
GPGPU-Sim uArch: core: 11, cta: 5 initialized @(6,0)
GPGPU-Sim uArch: core: 12, cta: 5 initialized @(6,0)
GPGPU-Sim uArch: core: 13, cta: 5 initialized @(6,0)
GPGPU-Sim uArch: core: 14, cta: 5 initialized @(6,0)
GPGPU-Sim uArch: core:  0, cta: 5 initialized @(6,0)
GPGPU-Sim uArch: core:  1, cta: 6 initialized @(7,0)
GPGPU-Sim uArch: core:  2, cta: 6 initialized @(7,0)
GPGPU-Sim uArch: core:  3, cta: 6 initialized @(7,0)
GPGPU-Sim uArch: core:  4, cta: 6 initialized @(7,0)
GPGPU-Sim uArch: core:  5, cta: 6 initialized @(7,0)
GPGPU-Sim uArch: core:  6, cta: 6 initialized @(7,0)
GPGPU-Sim uArch: core:  7, cta: 6 initialized @(7,0)
GPGPU-Sim uArch: core:  8, cta: 6 initialized @(7,0)
GPGPU-Sim uArch: core:  9, cta: 6 initialized @(7,0)
GPGPU-Sim uArch: core: 10, cta: 6 initialized @(7,0)
GPGPU-Sim PTX: 100000 instructions simulated : ctaid=(1,4,0) tid=(31,1,0)
GPGPU-Sim uArch: cycles simulated: 500  inst.: 109668 (ipc=219.3) sim_rate=109668 (inst/sec) elapsed = 0:0:00:01 / Tue Apr 16 16:55:28 2019
GPGPU-Sim PTX: 200000 instructions simulated : ctaid=(2,22,0) tid=(19,2,0)
GPGPU-Sim uArch: cycles simulated: 1000  inst.: 283772 (ipc=283.8) sim_rate=141886 (inst/sec) elapsed = 0:0:00:02 / Tue Apr 16 16:55:29 2019
GPGPU-Sim PTX: 300000 instructions simulated : ctaid=(0,11,0) tid=(31,3,0)
GPGPU-Sim PTX: 400000 instructions simulated : ctaid=(0,23,0) tid=(15,1,0)
GPGPU-Sim uArch: cycles simulated: 1500  inst.: 424724 (ipc=283.1) sim_rate=141574 (inst/sec) elapsed = 0:0:00:03 / Tue Apr 16 16:55:30 2019
GPGPU-Sim PTX: 500000 instructions simulated : ctaid=(3,12,0) tid=(23,0,0)
GPGPU-Sim PTX: 600000 instructions simulated : ctaid=(3,12,0) tid=(11,1,0)
GPGPU-Sim PTX: 700000 instructions simulated : ctaid=(1,16,0) tid=(7,1,0)
GPGPU-Sim uArch: cycles simulated: 2000  inst.: 745558 (ipc=372.8) sim_rate=186389 (inst/sec) elapsed = 0:0:00:04 / Tue Apr 16 16:55:31 2019
GPGPU-Sim PTX: 800000 instructions simulated : ctaid=(3,2,0) tid=(31,1,0)
GPGPU-Sim PTX: 900000 instructions simulated : ctaid=(0,14,0) tid=(26,0,0)
GPGPU-Sim PTX: 1000000 instructions simulated : ctaid=(3,17,0) tid=(14,2,0)
GPGPU-Sim PTX: 1100000 instructions simulated : ctaid=(1,15,0) tid=(2,3,0)
GPGPU-Sim PTX: 1200000 instructions simulated : ctaid=(0,12,0) tid=(26,0,0)
GPGPU-Sim uArch: cycles simulated: 3000  inst.: 1219842 (ipc=406.6) sim_rate=243968 (inst/sec) elapsed = 0:0:00:05 / Tue Apr 16 16:55:32 2019
GPGPU-Sim PTX: 1300000 instructions simulated : ctaid=(0,0,0) tid=(25,1,0)
GPGPU-Sim uArch: cycles simulated: 3500  inst.: 1287524 (ipc=367.9) sim_rate=214587 (inst/sec) elapsed = 0:0:00:06 / Tue Apr 16 16:55:33 2019
GPGPU-Sim PTX: 1400000 instructions simulated : ctaid=(2,17,0) tid=(29,0,0)
GPGPU-Sim PTX: 1500000 instructions simulated : ctaid=(0,10,0) tid=(25,1,0)
GPGPU-Sim PTX: 1600000 instructions simulated : ctaid=(2,5,0) tid=(22,0,0)
GPGPU-Sim uArch: cycles simulated: 4500  inst.: 1510162 (ipc=335.6) sim_rate=215737 (inst/sec) elapsed = 0:0:00:07 / Tue Apr 16 16:55:34 2019
GPGPU-Sim PTX: 1700000 instructions simulated : ctaid=(0,4,0) tid=(31,1,0)
GPGPU-Sim PTX: 1800000 instructions simulated : ctaid=(2,12,0) tid=(27,0,0)
GPGPU-Sim PTX: 1900000 instructions simulated : ctaid=(0,14,0) tid=(7,3,0)
GPGPU-Sim uArch: cycles simulated: 5500  inst.: 1819138 (ipc=330.8) sim_rate=227392 (inst/sec) elapsed = 0:0:00:08 / Tue Apr 16 16:55:35 2019
GPGPU-Sim PTX: 2000000 instructions simulated : ctaid=(0,1,0) tid=(25,1,0)
GPGPU-Sim PTX: 2100000 instructions simulated : ctaid=(1,13,0) tid=(5,0,0)
GPGPU-Sim uArch: cycles simulated: 6500  inst.: 1954629 (ipc=300.7) sim_rate=217181 (inst/sec) elapsed = 0:0:00:09 / Tue Apr 16 16:55:36 2019
GPGPU-Sim PTX: 2200000 instructions simulated : ctaid=(3,5,0) tid=(24,3,0)
GPGPU-Sim PTX: 2300000 instructions simulated : ctaid=(0,10,0) tid=(6,3,0)
GPGPU-Sim uArch: cycles simulated: 7000  inst.: 2174145 (ipc=310.6) sim_rate=217414 (inst/sec) elapsed = 0:0:00:10 / Tue Apr 16 16:55:37 2019
GPGPU-Sim PTX: 2400000 instructions simulated : ctaid=(3,14,0) tid=(22,0,0)
GPGPU-Sim PTX: 2500000 instructions simulated : ctaid=(2,8,0) tid=(22,0,0)
GPGPU-Sim PTX: 2600000 instructions simulated : ctaid=(0,4,0) tid=(25,3,0)
GPGPU-Sim PTX: 2700000 instructions simulated : ctaid=(0,12,0) tid=(10,2,0)
GPGPU-Sim uArch: cycles simulated: 7500  inst.: 2474002 (ipc=329.9) sim_rate=224909 (inst/sec) elapsed = 0:0:00:11 / Tue Apr 16 16:55:38 2019
GPGPU-Sim PTX: 2800000 instructions simulated : ctaid=(1,24,0) tid=(27,3,0)
GPGPU-Sim PTX: 2900000 instructions simulated : ctaid=(1,11,0) tid=(1,2,0)
GPGPU-Sim uArch: cycles simulated: 8500  inst.: 2716229 (ipc=319.6) sim_rate=226352 (inst/sec) elapsed = 0:0:00:12 / Tue Apr 16 16:55:39 2019
GPGPU-Sim PTX: 3000000 instructions simulated : ctaid=(3,10,0) tid=(0,1,0)
GPGPU-Sim PTX: 3100000 instructions simulated : ctaid=(3,10,0) tid=(2,1,0)
GPGPU-Sim PTX: 3200000 instructions simulated : ctaid=(1,4,0) tid=(14,2,0)
GPGPU-Sim uArch: cycles simulated: 9000  inst.: 2980724 (ipc=331.2) sim_rate=229286 (inst/sec) elapsed = 0:0:00:13 / Tue Apr 16 16:55:40 2019
GPGPU-Sim PTX: 3300000 instructions simulated : ctaid=(3,9,0) tid=(23,3,0)
GPGPU-Sim PTX: 3400000 instructions simulated : ctaid=(1,10,0) tid=(10,0,0)
GPGPU-Sim PTX: 3500000 instructions simulated : ctaid=(0,19,0) tid=(30,0,0)
GPGPU-Sim uArch: cycles simulated: 9500  inst.: 3238728 (ipc=340.9) sim_rate=231337 (inst/sec) elapsed = 0:0:00:14 / Tue Apr 16 16:55:41 2019
GPGPU-Sim PTX: 3600000 instructions simulated : ctaid=(2,24,0) tid=(10,0,0)
GPGPU-Sim PTX: 3700000 instructions simulated : ctaid=(1,0,0) tid=(28,3,0)
GPGPU-Sim uArch: cycles simulated: 10000  inst.: 3415251 (ipc=341.5) sim_rate=227683 (inst/sec) elapsed = 0:0:00:15 / Tue Apr 16 16:55:42 2019
GPGPU-Sim PTX: 3800000 instructions simulated : ctaid=(2,3,0) tid=(21,0,0)
GPGPU-Sim PTX: 3900000 instructions simulated : ctaid=(2,15,0) tid=(29,1,0)
GPGPU-Sim PTX: 4000000 instructions simulated : ctaid=(0,11,0) tid=(17,3,0)
GPGPU-Sim uArch: cycles simulated: 10500  inst.: 3663217 (ipc=348.9) sim_rate=228951 (inst/sec) elapsed = 0:0:00:16 / Tue Apr 16 16:55:43 2019
GPGPU-Sim PTX: 4100000 instructions simulated : ctaid=(0,2,0) tid=(13,3,0)
GPGPU-Sim PTX: 4200000 instructions simulated : ctaid=(2,22,0) tid=(6,0,0)
GPGPU-Sim PTX: 4300000 instructions simulated : ctaid=(0,16,0) tid=(10,1,0)
GPGPU-Sim uArch: cycles simulated: 11000  inst.: 3934236 (ipc=357.7) sim_rate=231425 (inst/sec) elapsed = 0:0:00:17 / Tue Apr 16 16:55:44 2019
GPGPU-Sim PTX: 4400000 instructions simulated : ctaid=(2,6,0) tid=(17,2,0)
GPGPU-Sim PTX: 4500000 instructions simulated : ctaid=(2,19,0) tid=(2,1,0)
GPGPU-Sim PTX: 4600000 instructions simulated : ctaid=(2,2,0) tid=(12,2,0)
GPGPU-Sim PTX: 4700000 instructions simulated : ctaid=(2,3,0) tid=(26,2,0)
GPGPU-Sim PTX: 4800000 instructions simulated : ctaid=(0,4,0) tid=(18,3,0)
GPGPU-Sim PTX: 4900000 instructions simulated : ctaid=(1,19,0) tid=(21,1,0)
GPGPU-Sim uArch: cycles simulated: 12000  inst.: 4424236 (ipc=368.7) sim_rate=245790 (inst/sec) elapsed = 0:0:00:18 / Tue Apr 16 16:55:45 2019
GPGPU-Sim PTX: 5000000 instructions simulated : ctaid=(3,15,0) tid=(1,1,0)
GPGPU-Sim PTX: 5100000 instructions simulated : ctaid=(1,20,0) tid=(5,2,0)
GPGPU-Sim uArch: cycles simulated: 12500  inst.: 4664937 (ipc=373.2) sim_rate=245523 (inst/sec) elapsed = 0:0:00:19 / Tue Apr 16 16:55:46 2019
GPGPU-Sim PTX: 5200000 instructions simulated : ctaid=(2,10,0) tid=(29,0,0)
GPGPU-Sim PTX: 5300000 instructions simulated : ctaid=(3,1,0) tid=(25,0,0)
GPGPU-Sim uArch: cycles simulated: 13000  inst.: 4864927 (ipc=374.2) sim_rate=243246 (inst/sec) elapsed = 0:0:00:20 / Tue Apr 16 16:55:47 2019
GPGPU-Sim PTX: 5400000 instructions simulated : ctaid=(2,3,0) tid=(10,1,0)
GPGPU-Sim PTX: 5500000 instructions simulated : ctaid=(2,1,0) tid=(20,0,0)
GPGPU-Sim PTX: 5600000 instructions simulated : ctaid=(0,12,0) tid=(11,0,0)
GPGPU-Sim PTX: 5700000 instructions simulated : ctaid=(0,8,0) tid=(13,0,0)
GPGPU-Sim uArch: cycles simulated: 13500  inst.: 5139663 (ipc=380.7) sim_rate=244745 (inst/sec) elapsed = 0:0:00:21 / Tue Apr 16 16:55:48 2019
GPGPU-Sim PTX: 5800000 instructions simulated : ctaid=(2,11,0) tid=(7,1,0)
GPGPU-Sim PTX: 5900000 instructions simulated : ctaid=(2,20,0) tid=(22,3,0)
GPGPU-Sim uArch: cycles simulated: 14000  inst.: 5373044 (ipc=383.8) sim_rate=244229 (inst/sec) elapsed = 0:0:00:22 / Tue Apr 16 16:55:49 2019
GPGPU-Sim PTX: 6000000 instructions simulated : ctaid=(0,6,0) tid=(28,3,0)
GPGPU-Sim PTX: 6100000 instructions simulated : ctaid=(3,13,0) tid=(6,2,0)
GPGPU-Sim PTX: 6200000 instructions simulated : ctaid=(1,21,0) tid=(11,2,0)
GPGPU-Sim uArch: cycles simulated: 14500  inst.: 5590773 (ipc=385.6) sim_rate=243077 (inst/sec) elapsed = 0:0:00:23 / Tue Apr 16 16:55:50 2019
GPGPU-Sim PTX: 6300000 instructions simulated : ctaid=(0,5,0) tid=(17,0,0)
GPGPU-Sim PTX: 6400000 instructions simulated : ctaid=(0,17,0) tid=(0,1,0)
GPGPU-Sim PTX: 6500000 instructions simulated : ctaid=(1,17,0) tid=(6,2,0)
GPGPU-Sim uArch: cycles simulated: 15000  inst.: 5844424 (ipc=389.6) sim_rate=243517 (inst/sec) elapsed = 0:0:00:24 / Tue Apr 16 16:55:51 2019
GPGPU-Sim PTX: 6600000 instructions simulated : ctaid=(2,14,0) tid=(8,1,0)
GPGPU-Sim PTX: 6700000 instructions simulated : ctaid=(2,12,0) tid=(14,0,0)
GPGPU-Sim uArch: cycles simulated: 15500  inst.: 6096766 (ipc=393.3) sim_rate=243870 (inst/sec) elapsed = 0:0:00:25 / Tue Apr 16 16:55:52 2019
GPGPU-Sim PTX: 6800000 instructions simulated : ctaid=(0,5,0) tid=(17,1,0)
GPGPU-Sim PTX: 6900000 instructions simulated : ctaid=(2,14,0) tid=(22,2,0)
GPGPU-Sim PTX: 7000000 instructions simulated : ctaid=(0,20,0) tid=(10,3,0)
GPGPU-Sim uArch: cycles simulated: 16000  inst.: 6347557 (ipc=396.7) sim_rate=244136 (inst/sec) elapsed = 0:0:00:26 / Tue Apr 16 16:55:53 2019
GPGPU-Sim PTX: 7100000 instructions simulated : ctaid=(1,10,0) tid=(27,0,0)
GPGPU-Sim PTX: 7200000 instructions simulated : ctaid=(2,13,0) tid=(19,2,0)
GPGPU-Sim PTX: 7300000 instructions simulated : ctaid=(0,5,0) tid=(9,1,0)
GPGPU-Sim PTX: 7400000 instructions simulated : ctaid=(2,23,0) tid=(12,0,0)
GPGPU-Sim PTX: 7500000 instructions simulated : ctaid=(3,5,0) tid=(3,3,0)
GPGPU-Sim PTX: 7600000 instructions simulated : ctaid=(0,4,0) tid=(14,3,0)
GPGPU-Sim uArch: cycles simulated: 17000  inst.: 6844649 (ipc=402.6) sim_rate=253505 (inst/sec) elapsed = 0:0:00:27 / Tue Apr 16 16:55:54 2019
GPGPU-Sim PTX: 7700000 instructions simulated : ctaid=(1,24,0) tid=(29,0,0)
GPGPU-Sim PTX: 7800000 instructions simulated : ctaid=(0,24,0) tid=(31,3,0)
GPGPU-Sim PTX: 7900000 instructions simulated : ctaid=(0,12,0) tid=(1,0,0)
GPGPU-Sim uArch: cycles simulated: 17500  inst.: 7095579 (ipc=405.5) sim_rate=253413 (inst/sec) elapsed = 0:0:00:28 / Tue Apr 16 16:55:55 2019
GPGPU-Sim PTX: 8000000 instructions simulated : ctaid=(0,14,0) tid=(14,3,0)
GPGPU-Sim PTX: 8100000 instructions simulated : ctaid=(0,19,0) tid=(19,3,0)
GPGPU-Sim uArch: cycles simulated: 18000  inst.: 7336312 (ipc=407.6) sim_rate=252976 (inst/sec) elapsed = 0:0:00:29 / Tue Apr 16 16:55:56 2019
GPGPU-Sim PTX: 8200000 instructions simulated : ctaid=(2,17,0) tid=(17,2,0)
GPGPU-Sim PTX: 8300000 instructions simulated : ctaid=(1,15,0) tid=(17,2,0)
GPGPU-Sim PTX: 8400000 instructions simulated : ctaid=(1,10,0) tid=(2,3,0)
GPGPU-Sim uArch: cycles simulated: 18500  inst.: 7609888 (ipc=411.3) sim_rate=253662 (inst/sec) elapsed = 0:0:00:30 / Tue Apr 16 16:55:57 2019
GPGPU-Sim PTX: 8500000 instructions simulated : ctaid=(2,14,0) tid=(3,2,0)
GPGPU-Sim PTX: 8600000 instructions simulated : ctaid=(0,12,0) tid=(0,3,0)
GPGPU-Sim PTX: 8700000 instructions simulated : ctaid=(1,17,0) tid=(8,0,0)
GPGPU-Sim uArch: cycles simulated: 19000  inst.: 7829741 (ipc=412.1) sim_rate=252572 (inst/sec) elapsed = 0:0:00:31 / Tue Apr 16 16:55:58 2019
GPGPU-Sim PTX: 8800000 instructions simulated : ctaid=(1,12,0) tid=(30,1,0)
GPGPU-Sim PTX: 8900000 instructions simulated : ctaid=(2,6,0) tid=(13,2,0)
GPGPU-Sim uArch: cycles simulated: 19500  inst.: 8059341 (ipc=413.3) sim_rate=251854 (inst/sec) elapsed = 0:0:00:32 / Tue Apr 16 16:55:59 2019
GPGPU-Sim PTX: 9000000 instructions simulated : ctaid=(2,7,0) tid=(29,0,0)
GPGPU-Sim PTX: 9100000 instructions simulated : ctaid=(0,9,0) tid=(18,3,0)
GPGPU-Sim PTX: 9200000 instructions simulated : ctaid=(1,6,0) tid=(19,0,0)
GPGPU-Sim PTX: 9300000 instructions simulated : ctaid=(2,9,0) tid=(25,0,0)
GPGPU-Sim uArch: cycles simulated: 20000  inst.: 8336024 (ipc=416.8) sim_rate=252606 (inst/sec) elapsed = 0:0:00:33 / Tue Apr 16 16:56:00 2019
GPGPU-Sim PTX: 9400000 instructions simulated : ctaid=(1,22,0) tid=(16,1,0)
GPGPU-Sim PTX: 9500000 instructions simulated : ctaid=(2,12,0) tid=(29,0,0)
GPGPU-Sim uArch: cycles simulated: 20500  inst.: 8568569 (ipc=418.0) sim_rate=252016 (inst/sec) elapsed = 0:0:00:34 / Tue Apr 16 16:56:01 2019
GPGPU-Sim PTX: 9600000 instructions simulated : ctaid=(0,15,0) tid=(21,3,0)
GPGPU-Sim PTX: 9700000 instructions simulated : ctaid=(1,11,0) tid=(15,3,0)
GPGPU-Sim PTX: 9800000 instructions simulated : ctaid=(0,3,0) tid=(19,3,0)
GPGPU-Sim uArch: cycles simulated: 21000  inst.: 8825474 (ipc=420.3) sim_rate=252156 (inst/sec) elapsed = 0:0:00:35 / Tue Apr 16 16:56:02 2019
GPGPU-Sim PTX: 9900000 instructions simulated : ctaid=(1,1,0) tid=(7,3,0)
GPGPU-Sim PTX: 10000000 instructions simulated : ctaid=(0,17,0) tid=(2,2,0)
GPGPU-Sim PTX: 10100000 instructions simulated : ctaid=(0,17,0) tid=(6,0,0)
GPGPU-Sim uArch: cycles simulated: 21500  inst.: 9093633 (ipc=423.0) sim_rate=252600 (inst/sec) elapsed = 0:0:00:36 / Tue Apr 16 16:56:03 2019
GPGPU-Sim PTX: 10200000 instructions simulated : ctaid=(3,21,0) tid=(1,1,0)
GPGPU-Sim PTX: 10300000 instructions simulated : ctaid=(0,9,0) tid=(7,0,0)
GPGPU-Sim PTX: 10400000 instructions simulated : ctaid=(1,3,0) tid=(31,3,0)
GPGPU-Sim uArch: cycles simulated: 22000  inst.: 9337088 (ipc=424.4) sim_rate=252353 (inst/sec) elapsed = 0:0:00:37 / Tue Apr 16 16:56:04 2019
GPGPU-Sim PTX: 10500000 instructions simulated : ctaid=(1,22,0) tid=(29,1,0)
GPGPU-Sim PTX: 10600000 instructions simulated : ctaid=(2,4,0) tid=(17,1,0)
GPGPU-Sim PTX: 10700000 instructions simulated : ctaid=(2,10,0) tid=(2,2,0)
GPGPU-Sim PTX: 10800000 instructions simulated : ctaid=(2,15,0) tid=(1,3,0)
GPGPU-Sim PTX: 10900000 instructions simulated : ctaid=(2,12,0) tid=(26,2,0)
GPGPU-Sim uArch: cycles simulated: 23000  inst.: 9845359 (ipc=428.1) sim_rate=259088 (inst/sec) elapsed = 0:0:00:38 / Tue Apr 16 16:56:05 2019
GPGPU-Sim PTX: 11000000 instructions simulated : ctaid=(2,16,0) tid=(3,3,0)
GPGPU-Sim PTX: 11100000 instructions simulated : ctaid=(2,19,0) tid=(4,0,0)
GPGPU-Sim PTX: 11200000 instructions simulated : ctaid=(2,1,0) tid=(15,2,0)
GPGPU-Sim uArch: cycles simulated: 23500  inst.: 10102307 (ipc=429.9) sim_rate=259033 (inst/sec) elapsed = 0:0:00:39 / Tue Apr 16 16:56:06 2019
GPGPU-Sim PTX: 11300000 instructions simulated : ctaid=(2,1,0) tid=(26,2,0)
GPGPU-Sim PTX: 11400000 instructions simulated : ctaid=(0,3,0) tid=(25,0,0)
GPGPU-Sim PTX: 11500000 instructions simulated : ctaid=(1,6,0) tid=(17,1,0)
GPGPU-Sim uArch: cycles simulated: 24000  inst.: 10335260 (ipc=430.6) sim_rate=258381 (inst/sec) elapsed = 0:0:00:40 / Tue Apr 16 16:56:07 2019
GPGPU-Sim PTX: 11600000 instructions simulated : ctaid=(2,0,0) tid=(27,1,0)
GPGPU-Sim PTX: 11700000 instructions simulated : ctaid=(2,10,0) tid=(31,3,0)
GPGPU-Sim PTX: 11800000 instructions simulated : ctaid=(3,24,0) tid=(10,0,0)
GPGPU-Sim uArch: cycles simulated: 24500  inst.: 10607803 (ipc=433.0) sim_rate=258726 (inst/sec) elapsed = 0:0:00:41 / Tue Apr 16 16:56:08 2019
GPGPU-Sim PTX: 11900000 instructions simulated : ctaid=(1,6,0) tid=(19,0,0)
GPGPU-Sim PTX: 12000000 instructions simulated : ctaid=(2,24,0) tid=(5,2,0)
GPGPU-Sim PTX: 12100000 instructions simulated : ctaid=(0,13,0) tid=(23,3,0)
GPGPU-Sim uArch: cycles simulated: 25000  inst.: 10841389 (ipc=433.7) sim_rate=258128 (inst/sec) elapsed = 0:0:00:42 / Tue Apr 16 16:56:09 2019
GPGPU-Sim PTX: 12200000 instructions simulated : ctaid=(3,7,0) tid=(18,2,0)
GPGPU-Sim PTX: 12300000 instructions simulated : ctaid=(3,12,0) tid=(2,0,0)
GPGPU-Sim uArch: cycles simulated: 25500  inst.: 11056709 (ipc=433.6) sim_rate=257132 (inst/sec) elapsed = 0:0:00:43 / Tue Apr 16 16:56:10 2019
GPGPU-Sim PTX: 12400000 instructions simulated : ctaid=(2,2,0) tid=(15,3,0)
GPGPU-Sim PTX: 12500000 instructions simulated : ctaid=(2,3,0) tid=(2,0,0)
GPGPU-Sim PTX: 12600000 instructions simulated : ctaid=(0,13,0) tid=(1,0,0)
GPGPU-Sim uArch: cycles simulated: 26000  inst.: 11327465 (ipc=435.7) sim_rate=257442 (inst/sec) elapsed = 0:0:00:44 / Tue Apr 16 16:56:11 2019
GPGPU-Sim PTX: 12700000 instructions simulated : ctaid=(2,1,0) tid=(15,3,0)
GPGPU-Sim PTX: 12800000 instructions simulated : ctaid=(2,18,0) tid=(31,0,0)
GPGPU-Sim PTX: 12900000 instructions simulated : ctaid=(0,11,0) tid=(21,0,0)
GPGPU-Sim uArch: cycles simulated: 26500  inst.: 11568105 (ipc=436.5) sim_rate=257069 (inst/sec) elapsed = 0:0:00:45 / Tue Apr 16 16:56:12 2019
GPGPU-Sim PTX: 13000000 instructions simulated : ctaid=(1,6,0) tid=(3,0,0)
GPGPU-Sim PTX: 13100000 instructions simulated : ctaid=(3,2,0) tid=(2,3,0)
GPGPU-Sim PTX: 13200000 instructions simulated : ctaid=(3,19,0) tid=(2,0,0)
GPGPU-Sim uArch: cycles simulated: 27000  inst.: 11806786 (ipc=437.3) sim_rate=256669 (inst/sec) elapsed = 0:0:00:46 / Tue Apr 16 16:56:13 2019
GPGPU-Sim PTX: 13300000 instructions simulated : ctaid=(0,23,0) tid=(8,2,0)
GPGPU-Sim PTX: 13400000 instructions simulated : ctaid=(2,5,0) tid=(20,2,0)
GPGPU-Sim PTX: 13500000 instructions simulated : ctaid=(2,0,0) tid=(28,1,0)
GPGPU-Sim PTX: 13600000 instructions simulated : ctaid=(0,24,0) tid=(11,0,0)
GPGPU-Sim PTX: 13700000 instructions simulated : ctaid=(2,11,0) tid=(1,3,0)
GPGPU-Sim uArch: cycles simulated: 28000  inst.: 12309333 (ipc=439.6) sim_rate=261900 (inst/sec) elapsed = 0:0:00:47 / Tue Apr 16 16:56:14 2019
GPGPU-Sim PTX: 13800000 instructions simulated : ctaid=(0,2,0) tid=(30,3,0)
GPGPU-Sim PTX: 13900000 instructions simulated : ctaid=(0,18,0) tid=(0,0,0)
GPGPU-Sim PTX: 14000000 instructions simulated : ctaid=(2,14,0) tid=(6,0,0)
GPGPU-Sim uArch: cycles simulated: 28500  inst.: 12572700 (ipc=441.1) sim_rate=261931 (inst/sec) elapsed = 0:0:00:48 / Tue Apr 16 16:56:15 2019
GPGPU-Sim PTX: 14100000 instructions simulated : ctaid=(3,3,0) tid=(9,1,0)
GPGPU-Sim PTX: 14200000 instructions simulated : ctaid=(0,14,0) tid=(15,3,0)
GPGPU-Sim PTX: 14300000 instructions simulated : ctaid=(3,20,0) tid=(13,3,0)
GPGPU-Sim uArch: cycles simulated: 29000  inst.: 12830779 (ipc=442.4) sim_rate=261852 (inst/sec) elapsed = 0:0:00:49 / Tue Apr 16 16:56:16 2019
GPGPU-Sim PTX: 14400000 instructions simulated : ctaid=(2,5,0) tid=(11,0,0)
GPGPU-Sim PTX: 14500000 instructions simulated : ctaid=(2,20,0) tid=(12,0,0)
GPGPU-Sim PTX: 14600000 instructions simulated : ctaid=(1,2,0) tid=(3,1,0)
GPGPU-Sim uArch: cycles simulated: 29500  inst.: 13076551 (ipc=443.3) sim_rate=261531 (inst/sec) elapsed = 0:0:00:50 / Tue Apr 16 16:56:17 2019
GPGPU-Sim PTX: 14700000 instructions simulated : ctaid=(1,6,0) tid=(31,1,0)
GPGPU-Sim PTX: 14800000 instructions simulated : ctaid=(0,7,0) tid=(4,0,0)
GPGPU-Sim PTX: 14900000 instructions simulated : ctaid=(0,9,0) tid=(12,3,0)
GPGPU-Sim uArch: cycles simulated: 30000  inst.: 13335184 (ipc=444.5) sim_rate=261474 (inst/sec) elapsed = 0:0:00:51 / Tue Apr 16 16:56:18 2019
GPGPU-Sim PTX: 15000000 instructions simulated : ctaid=(0,8,0) tid=(1,2,0)
GPGPU-Sim PTX: 15100000 instructions simulated : ctaid=(0,10,0) tid=(31,1,0)
GPGPU-Sim PTX: 15200000 instructions simulated : ctaid=(0,0,0) tid=(15,3,0)
GPGPU-Sim uArch: cycles simulated: 30500  inst.: 13599449 (ipc=445.9) sim_rate=261527 (inst/sec) elapsed = 0:0:00:52 / Tue Apr 16 16:56:19 2019
GPGPU-Sim PTX: 15300000 instructions simulated : ctaid=(0,12,0) tid=(20,0,0)
GPGPU-Sim PTX: 15400000 instructions simulated : ctaid=(0,0,0) tid=(18,2,0)
GPGPU-Sim PTX: 15500000 instructions simulated : ctaid=(2,2,0) tid=(21,1,0)
GPGPU-Sim uArch: cycles simulated: 31000  inst.: 13853493 (ipc=446.9) sim_rate=261386 (inst/sec) elapsed = 0:0:00:53 / Tue Apr 16 16:56:20 2019
GPGPU-Sim PTX: 15600000 instructions simulated : ctaid=(3,14,0) tid=(0,3,0)
GPGPU-Sim PTX: 15700000 instructions simulated : ctaid=(3,7,0) tid=(29,2,0)
GPGPU-Sim uArch: cycles simulated: 31500  inst.: 14105699 (ipc=447.8) sim_rate=261216 (inst/sec) elapsed = 0:0:00:54 / Tue Apr 16 16:56:21 2019
GPGPU-Sim PTX: 15800000 instructions simulated : ctaid=(1,7,0) tid=(18,1,0)
GPGPU-Sim PTX: 15900000 instructions simulated : ctaid=(0,1,0) tid=(23,0,0)
GPGPU-Sim PTX: 16000000 instructions simulated : ctaid=(1,11,0) tid=(6,3,0)
GPGPU-Sim uArch: cycles simulated: 32000  inst.: 14361434 (ipc=448.8) sim_rate=261116 (inst/sec) elapsed = 0:0:00:55 / Tue Apr 16 16:56:22 2019
GPGPU-Sim PTX: 16100000 instructions simulated : ctaid=(2,18,0) tid=(19,0,0)
GPGPU-Sim PTX: 16200000 instructions simulated : ctaid=(1,7,0) tid=(5,0,0)
GPGPU-Sim PTX: 16300000 instructions simulated : ctaid=(2,6,0) tid=(28,1,0)
GPGPU-Sim uArch: cycles simulated: 32500  inst.: 14626142 (ipc=450.0) sim_rate=261181 (inst/sec) elapsed = 0:0:00:56 / Tue Apr 16 16:56:23 2019
GPGPU-Sim PTX: 16400000 instructions simulated : ctaid=(0,9,0) tid=(12,1,0)
GPGPU-Sim PTX: 16500000 instructions simulated : ctaid=(0,6,0) tid=(17,1,0)
GPGPU-Sim PTX: 16600000 instructions simulated : ctaid=(0,7,0) tid=(7,0,0)
GPGPU-Sim uArch: cycles simulated: 33000  inst.: 14877356 (ipc=450.8) sim_rate=261006 (inst/sec) elapsed = 0:0:00:57 / Tue Apr 16 16:56:24 2019
GPGPU-Sim PTX: 16700000 instructions simulated : ctaid=(0,23,0) tid=(5,1,0)
GPGPU-Sim PTX: 16800000 instructions simulated : ctaid=(3,13,0) tid=(6,3,0)
GPGPU-Sim PTX: 16900000 instructions simulated : ctaid=(0,3,0) tid=(5,1,0)
GPGPU-Sim uArch: cycles simulated: 33500  inst.: 15149783 (ipc=452.2) sim_rate=261203 (inst/sec) elapsed = 0:0:00:58 / Tue Apr 16 16:56:25 2019
GPGPU-Sim PTX: 17000000 instructions simulated : ctaid=(1,17,0) tid=(24,2,0)
GPGPU-Sim PTX: 17100000 instructions simulated : ctaid=(1,14,0) tid=(21,2,0)
GPGPU-Sim PTX: 17200000 instructions simulated : ctaid=(1,14,0) tid=(9,1,0)
GPGPU-Sim PTX: 17300000 instructions simulated : ctaid=(2,20,0) tid=(24,0,0)
GPGPU-Sim PTX: 17400000 instructions simulated : ctaid=(1,12,0) tid=(25,2,0)
GPGPU-Sim PTX: 17500000 instructions simulated : ctaid=(3,12,0) tid=(0,1,0)
GPGPU-Sim uArch: cycles simulated: 34500  inst.: 15663505 (ipc=454.0) sim_rate=265483 (inst/sec) elapsed = 0:0:00:59 / Tue Apr 16 16:56:26 2019
GPGPU-Sim PTX: 17600000 instructions simulated : ctaid=(2,8,0) tid=(24,2,0)
GPGPU-Sim PTX: 17700000 instructions simulated : ctaid=(0,5,0) tid=(10,3,0)
GPGPU-Sim PTX: 17800000 instructions simulated : ctaid=(1,18,0) tid=(5,1,0)
GPGPU-Sim uArch: cycles simulated: 35000  inst.: 15922215 (ipc=454.9) sim_rate=265370 (inst/sec) elapsed = 0:0:01:00 / Tue Apr 16 16:56:27 2019
GPGPU-Sim PTX: 17900000 instructions simulated : ctaid=(0,9,0) tid=(2,3,0)
GPGPU-Sim PTX: 18000000 instructions simulated : ctaid=(0,18,0) tid=(21,1,0)
GPGPU-Sim uArch: cycles simulated: 35500  inst.: 16148634 (ipc=454.9) sim_rate=264731 (inst/sec) elapsed = 0:0:01:01 / Tue Apr 16 16:56:28 2019
GPGPU-Sim PTX: 18100000 instructions simulated : ctaid=(2,14,0) tid=(20,3,0)
GPGPU-Sim PTX: 18200000 instructions simulated : ctaid=(1,24,0) tid=(13,3,0)
GPGPU-Sim PTX: 18300000 instructions simulated : ctaid=(1,11,0) tid=(22,2,0)
GPGPU-Sim uArch: cycles simulated: 36000  inst.: 16401838 (ipc=455.6) sim_rate=264545 (inst/sec) elapsed = 0:0:01:02 / Tue Apr 16 16:56:29 2019
GPGPU-Sim PTX: 18400000 instructions simulated : ctaid=(2,8,0) tid=(3,2,0)
GPGPU-Sim PTX: 18500000 instructions simulated : ctaid=(0,8,0) tid=(18,1,0)
GPGPU-Sim PTX: 18600000 instructions simulated : ctaid=(0,7,0) tid=(4,0,0)
GPGPU-Sim uArch: cycles simulated: 36500  inst.: 16660473 (ipc=456.5) sim_rate=264451 (inst/sec) elapsed = 0:0:01:03 / Tue Apr 16 16:56:30 2019
GPGPU-Sim PTX: 18700000 instructions simulated : ctaid=(0,2,0) tid=(7,0,0)
GPGPU-Sim PTX: 18800000 instructions simulated : ctaid=(2,1,0) tid=(8,2,0)
GPGPU-Sim PTX: 18900000 instructions simulated : ctaid=(1,3,0) tid=(6,1,0)
GPGPU-Sim uArch: cycles simulated: 37000  inst.: 16896465 (ipc=456.7) sim_rate=264007 (inst/sec) elapsed = 0:0:01:04 / Tue Apr 16 16:56:31 2019
GPGPU-Sim PTX: 19000000 instructions simulated : ctaid=(0,13,0) tid=(17,0,0)
GPGPU-Sim PTX: 19100000 instructions simulated : ctaid=(2,9,0) tid=(21,1,0)
GPGPU-Sim PTX: 19200000 instructions simulated : ctaid=(1,4,0) tid=(23,0,0)
GPGPU-Sim uArch: cycles simulated: 37500  inst.: 17152127 (ipc=457.4) sim_rate=263878 (inst/sec) elapsed = 0:0:01:05 / Tue Apr 16 16:56:32 2019
GPGPU-Sim PTX: 19300000 instructions simulated : ctaid=(3,1,0) tid=(2,3,0)
GPGPU-Sim PTX: 19400000 instructions simulated : ctaid=(2,14,0) tid=(30,2,0)
GPGPU-Sim uArch: cycles simulated: 38000  inst.: 17389674 (ipc=457.6) sim_rate=263479 (inst/sec) elapsed = 0:0:01:06 / Tue Apr 16 16:56:33 2019
GPGPU-Sim PTX: 19500000 instructions simulated : ctaid=(2,4,0) tid=(2,0,0)
GPGPU-Sim PTX: 19600000 instructions simulated : ctaid=(1,12,0) tid=(0,1,0)
GPGPU-Sim PTX: 19700000 instructions simulated : ctaid=(1,0,0) tid=(22,3,0)
GPGPU-Sim uArch: cycles simulated: 38500  inst.: 17637736 (ipc=458.1) sim_rate=263249 (inst/sec) elapsed = 0:0:01:07 / Tue Apr 16 16:56:34 2019
GPGPU-Sim PTX: 19800000 instructions simulated : ctaid=(2,5,0) tid=(5,0,0)
GPGPU-Sim PTX: 19900000 instructions simulated : ctaid=(1,9,0) tid=(25,0,0)
GPGPU-Sim PTX: 20000000 instructions simulated : ctaid=(2,23,0) tid=(13,2,0)
GPGPU-Sim PTX: 20100000 instructions simulated : ctaid=(0,10,0) tid=(29,1,0)
GPGPU-Sim PTX: 20200000 instructions simulated : ctaid=(1,14,0) tid=(2,1,0)
GPGPU-Sim PTX: 20300000 instructions simulated : ctaid=(1,1,0) tid=(11,0,0)
GPGPU-Sim uArch: cycles simulated: 39500  inst.: 18144464 (ipc=459.4) sim_rate=266830 (inst/sec) elapsed = 0:0:01:08 / Tue Apr 16 16:56:35 2019
GPGPU-Sim PTX: 20400000 instructions simulated : ctaid=(0,0,0) tid=(20,2,0)
GPGPU-Sim PTX: 20500000 instructions simulated : ctaid=(0,17,0) tid=(24,0,0)
GPGPU-Sim PTX: 20600000 instructions simulated : ctaid=(1,10,0) tid=(30,2,0)
GPGPU-Sim uArch: cycles simulated: 40000  inst.: 18383160 (ipc=459.6) sim_rate=266422 (inst/sec) elapsed = 0:0:01:09 / Tue Apr 16 16:56:36 2019
GPGPU-Sim PTX: 20700000 instructions simulated : ctaid=(2,13,0) tid=(10,1,0)
GPGPU-Sim PTX: 20800000 instructions simulated : ctaid=(0,6,0) tid=(14,0,0)
GPGPU-Sim PTX: 20900000 instructions simulated : ctaid=(1,16,0) tid=(12,2,0)
GPGPU-Sim uArch: cycles simulated: 40500  inst.: 18657943 (ipc=460.7) sim_rate=266542 (inst/sec) elapsed = 0:0:01:10 / Tue Apr 16 16:56:37 2019
GPGPU-Sim PTX: 21000000 instructions simulated : ctaid=(1,20,0) tid=(3,0,0)
GPGPU-Sim PTX: 21100000 instructions simulated : ctaid=(3,8,0) tid=(3,1,0)
GPGPU-Sim uArch: cycles simulated: 41000  inst.: 18896626 (ipc=460.9) sim_rate=266149 (inst/sec) elapsed = 0:0:01:11 / Tue Apr 16 16:56:38 2019
GPGPU-Sim PTX: 21200000 instructions simulated : ctaid=(2,7,0) tid=(5,2,0)
GPGPU-Sim PTX: 21300000 instructions simulated : ctaid=(1,12,0) tid=(29,3,0)
GPGPU-Sim PTX: 21400000 instructions simulated : ctaid=(0,13,0) tid=(19,0,0)
GPGPU-Sim uArch: cycles simulated: 41500  inst.: 19137170 (ipc=461.1) sim_rate=265794 (inst/sec) elapsed = 0:0:01:12 / Tue Apr 16 16:56:39 2019
GPGPU-Sim PTX: 21500000 instructions simulated : ctaid=(1,9,0) tid=(2,1,0)
GPGPU-Sim PTX: 21600000 instructions simulated : ctaid=(2,16,0) tid=(6,0,0)
GPGPU-Sim PTX: 21700000 instructions simulated : ctaid=(1,13,0) tid=(25,2,0)
GPGPU-Sim uArch: cycles simulated: 42000  inst.: 19427411 (ipc=462.6) sim_rate=266128 (inst/sec) elapsed = 0:0:01:13 / Tue Apr 16 16:56:40 2019
GPGPU-Sim PTX: 21800000 instructions simulated : ctaid=(0,2,0) tid=(4,0,0)
GPGPU-Sim PTX: 21900000 instructions simulated : ctaid=(1,21,0) tid=(0,2,0)
GPGPU-Sim PTX: 22000000 instructions simulated : ctaid=(0,24,0) tid=(5,3,0)
GPGPU-Sim uArch: cycles simulated: 42500  inst.: 19660288 (ipc=462.6) sim_rate=265679 (inst/sec) elapsed = 0:0:01:14 / Tue Apr 16 16:56:41 2019
GPGPU-Sim PTX: 22100000 instructions simulated : ctaid=(0,16,0) tid=(26,1,0)
GPGPU-Sim PTX: 22200000 instructions simulated : ctaid=(3,12,0) tid=(3,0,0)
GPGPU-Sim PTX: 22300000 instructions simulated : ctaid=(0,4,0) tid=(6,1,0)
GPGPU-Sim uArch: cycles simulated: 43000  inst.: 19916299 (ipc=463.2) sim_rate=265550 (inst/sec) elapsed = 0:0:01:15 / Tue Apr 16 16:56:42 2019
GPGPU-Sim PTX: 22400000 instructions simulated : ctaid=(2,10,0) tid=(30,0,0)
GPGPU-Sim PTX: 22500000 instructions simulated : ctaid=(1,1,0) tid=(24,1,0)
GPGPU-Sim PTX: 22600000 instructions simulated : ctaid=(0,1,0) tid=(14,3,0)
GPGPU-Sim uArch: cycles simulated: 43500  inst.: 20198721 (ipc=464.3) sim_rate=265772 (inst/sec) elapsed = 0:0:01:16 / Tue Apr 16 16:56:43 2019
GPGPU-Sim PTX: 22700000 instructions simulated : ctaid=(1,7,0) tid=(6,3,0)
GPGPU-Sim PTX: 22800000 instructions simulated : ctaid=(0,11,0) tid=(10,0,0)
GPGPU-Sim PTX: 22900000 instructions simulated : ctaid=(1,13,0) tid=(4,1,0)
GPGPU-Sim PTX: 23000000 instructions simulated : ctaid=(2,10,0) tid=(18,3,0)
GPGPU-Sim PTX: 23100000 instructions simulated : ctaid=(1,12,0) tid=(27,0,0)
GPGPU-Sim uArch: cycles simulated: 44500  inst.: 20673380 (ipc=464.6) sim_rate=268485 (inst/sec) elapsed = 0:0:01:17 / Tue Apr 16 16:56:44 2019
GPGPU-Sim PTX: 23200000 instructions simulated : ctaid=(0,2,0) tid=(23,2,0)
GPGPU-Sim PTX: 23300000 instructions simulated : ctaid=(0,2,0) tid=(16,2,0)
GPGPU-Sim PTX: 23400000 instructions simulated : ctaid=(2,7,0) tid=(31,1,0)
GPGPU-Sim uArch: cycles simulated: 45000  inst.: 20941341 (ipc=465.4) sim_rate=268478 (inst/sec) elapsed = 0:0:01:18 / Tue Apr 16 16:56:45 2019
GPGPU-Sim PTX: 23500000 instructions simulated : ctaid=(2,4,0) tid=(7,3,0)
GPGPU-Sim PTX: 23600000 instructions simulated : ctaid=(1,9,0) tid=(5,3,0)
GPGPU-Sim PTX: 23700000 instructions simulated : ctaid=(2,13,0) tid=(18,2,0)
GPGPU-Sim uArch: cycles simulated: 45500  inst.: 21185165 (ipc=465.6) sim_rate=268166 (inst/sec) elapsed = 0:0:01:19 / Tue Apr 16 16:56:46 2019
GPGPU-Sim PTX: 23800000 instructions simulated : ctaid=(1,3,0) tid=(1,2,0)
GPGPU-Sim PTX: 23900000 instructions simulated : ctaid=(2,23,0) tid=(20,1,0)
GPGPU-Sim PTX: 24000000 instructions simulated : ctaid=(0,10,0) tid=(5,2,0)
GPGPU-Sim uArch: cycles simulated: 46000  inst.: 21440865 (ipc=466.1) sim_rate=268010 (inst/sec) elapsed = 0:0:01:20 / Tue Apr 16 16:56:47 2019
GPGPU-Sim PTX: 24100000 instructions simulated : ctaid=(2,16,0) tid=(10,2,0)
GPGPU-Sim PTX: 24200000 instructions simulated : ctaid=(3,6,0) tid=(30,2,0)
GPGPU-Sim PTX: 24300000 instructions simulated : ctaid=(1,18,0) tid=(0,2,0)
GPGPU-Sim uArch: cycles simulated: 46500  inst.: 21701703 (ipc=466.7) sim_rate=267922 (inst/sec) elapsed = 0:0:01:21 / Tue Apr 16 16:56:48 2019
GPGPU-Sim PTX: 24400000 instructions simulated : ctaid=(1,0,0) tid=(24,3,0)
GPGPU-Sim PTX: 24500000 instructions simulated : ctaid=(1,9,0) tid=(25,0,0)
GPGPU-Sim PTX: 24600000 instructions simulated : ctaid=(1,10,0) tid=(10,0,0)
GPGPU-Sim uArch: cycles simulated: 47000  inst.: 21962629 (ipc=467.3) sim_rate=267836 (inst/sec) elapsed = 0:0:01:22 / Tue Apr 16 16:56:49 2019
GPGPU-Sim PTX: 24700000 instructions simulated : ctaid=(1,2,0) tid=(28,3,0)
GPGPU-Sim PTX: 24800000 instructions simulated : ctaid=(2,6,0) tid=(27,0,0)
GPGPU-Sim PTX: 24900000 instructions simulated : ctaid=(2,3,0) tid=(8,1,0)
GPGPU-Sim uArch: cycles simulated: 47500  inst.: 22205503 (ipc=467.5) sim_rate=267536 (inst/sec) elapsed = 0:0:01:23 / Tue Apr 16 16:56:50 2019
GPGPU-Sim PTX: 25000000 instructions simulated : ctaid=(1,0,0) tid=(23,2,0)
GPGPU-Sim PTX: 25100000 instructions simulated : ctaid=(0,15,0) tid=(2,1,0)
GPGPU-Sim uArch: cycles simulated: 48000  inst.: 22465633 (ipc=468.0) sim_rate=267448 (inst/sec) elapsed = 0:0:01:24 / Tue Apr 16 16:56:51 2019
GPGPU-Sim PTX: 25200000 instructions simulated : ctaid=(3,10,0) tid=(15,2,0)
GPGPU-Sim PTX: 25300000 instructions simulated : ctaid=(2,17,0) tid=(25,3,0)
GPGPU-Sim PTX: 25400000 instructions simulated : ctaid=(0,16,0) tid=(23,2,0)
GPGPU-Sim uArch: cycles simulated: 48500  inst.: 22717061 (ipc=468.4) sim_rate=267259 (inst/sec) elapsed = 0:0:01:25 / Tue Apr 16 16:56:52 2019
GPGPU-Sim PTX: 25500000 instructions simulated : ctaid=(0,20,0) tid=(5,0,0)
GPGPU-Sim PTX: 25600000 instructions simulated : ctaid=(1,19,0) tid=(2,2,0)
GPGPU-Sim PTX: 25700000 instructions simulated : ctaid=(2,24,0) tid=(27,1,0)
GPGPU-Sim uArch: cycles simulated: 49000  inst.: 22961390 (ipc=468.6) sim_rate=266992 (inst/sec) elapsed = 0:0:01:26 / Tue Apr 16 16:56:53 2019
GPGPU-Sim PTX: 25800000 instructions simulated : ctaid=(1,16,0) tid=(13,2,0)
GPGPU-Sim PTX: 25900000 instructions simulated : ctaid=(2,12,0) tid=(7,2,0)
GPGPU-Sim PTX: 26000000 instructions simulated : ctaid=(2,3,0) tid=(12,2,0)
GPGPU-Sim PTX: 26100000 instructions simulated : ctaid=(0,1,0) tid=(18,1,0)
GPGPU-Sim PTX: 26200000 instructions simulated : ctaid=(0,3,0) tid=(14,3,0)
GPGPU-Sim PTX: 26300000 instructions simulated : ctaid=(2,16,0) tid=(29,0,0)
GPGPU-Sim uArch: cycles simulated: 50000  inst.: 23474422 (ipc=469.5) sim_rate=269820 (inst/sec) elapsed = 0:0:01:27 / Tue Apr 16 16:56:54 2019
GPGPU-Sim PTX: 26400000 instructions simulated : ctaid=(0,14,0) tid=(3,1,0)
GPGPU-Sim PTX: 26500000 instructions simulated : ctaid=(1,1,0) tid=(7,0,0)
GPGPU-Sim uArch: cycles simulated: 50500  inst.: 23687241 (ipc=469.1) sim_rate=269173 (inst/sec) elapsed = 0:0:01:28 / Tue Apr 16 16:56:55 2019
GPGPU-Sim PTX: 26600000 instructions simulated : ctaid=(1,16,0) tid=(18,2,0)
GPGPU-Sim PTX: 26700000 instructions simulated : ctaid=(0,16,0) tid=(8,1,0)
GPGPU-Sim PTX: 26800000 instructions simulated : ctaid=(0,18,0) tid=(4,3,0)
GPGPU-Sim uArch: cycles simulated: 51000  inst.: 23954882 (ipc=469.7) sim_rate=269155 (inst/sec) elapsed = 0:0:01:29 / Tue Apr 16 16:56:56 2019
GPGPU-Sim PTX: 26900000 instructions simulated : ctaid=(0,6,0) tid=(22,3,0)
GPGPU-Sim PTX: 27000000 instructions simulated : ctaid=(1,23,0) tid=(11,3,0)
GPGPU-Sim PTX: 27100000 instructions simulated : ctaid=(1,23,0) tid=(26,2,0)
GPGPU-Sim uArch: cycles simulated: 51500  inst.: 24197204 (ipc=469.8) sim_rate=268857 (inst/sec) elapsed = 0:0:01:30 / Tue Apr 16 16:56:57 2019
GPGPU-Sim PTX: 27200000 instructions simulated : ctaid=(0,19,0) tid=(17,1,0)
GPGPU-Sim PTX: 27300000 instructions simulated : ctaid=(1,3,0) tid=(23,1,0)
GPGPU-Sim PTX: 27400000 instructions simulated : ctaid=(3,17,0) tid=(6,3,0)
GPGPU-Sim uArch: cycles simulated: 52000  inst.: 24446006 (ipc=470.1) sim_rate=268637 (inst/sec) elapsed = 0:0:01:31 / Tue Apr 16 16:56:58 2019
GPGPU-Sim PTX: 27500000 instructions simulated : ctaid=(0,6,0) tid=(17,3,0)
GPGPU-Sim PTX: 27600000 instructions simulated : ctaid=(1,2,0) tid=(14,2,0)
GPGPU-Sim PTX: 27700000 instructions simulated : ctaid=(0,8,0) tid=(6,0,0)
GPGPU-Sim uArch: cycles simulated: 52500  inst.: 24711271 (ipc=470.7) sim_rate=268600 (inst/sec) elapsed = 0:0:01:32 / Tue Apr 16 16:56:59 2019
GPGPU-Sim PTX: 27800000 instructions simulated : ctaid=(1,17,0) tid=(10,3,0)
GPGPU-Sim PTX: 27900000 instructions simulated : ctaid=(1,5,0) tid=(18,0,0)
GPGPU-Sim uArch: cycles simulated: 53000  inst.: 24938023 (ipc=470.5) sim_rate=268150 (inst/sec) elapsed = 0:0:01:33 / Tue Apr 16 16:57:00 2019
GPGPU-Sim PTX: 28000000 instructions simulated : ctaid=(1,3,0) tid=(22,2,0)
GPGPU-Sim PTX: 28100000 instructions simulated : ctaid=(2,1,0) tid=(4,0,0)
GPGPU-Sim PTX: 28200000 instructions simulated : ctaid=(2,22,0) tid=(25,3,0)
GPGPU-Sim uArch: cycles simulated: 53500  inst.: 25190772 (ipc=470.9) sim_rate=267986 (inst/sec) elapsed = 0:0:01:34 / Tue Apr 16 16:57:01 2019
GPGPU-Sim PTX: 28300000 instructions simulated : ctaid=(0,8,0) tid=(31,3,0)
GPGPU-Sim PTX: 28400000 instructions simulated : ctaid=(1,0,0) tid=(20,1,0)
GPGPU-Sim PTX: 28500000 instructions simulated : ctaid=(1,16,0) tid=(21,2,0)
GPGPU-Sim PTX: 28600000 instructions simulated : ctaid=(1,7,0) tid=(4,1,0)
GPGPU-Sim PTX: 28700000 instructions simulated : ctaid=(1,24,0) tid=(14,0,0)
GPGPU-Sim PTX: 28800000 instructions simulated : ctaid=(0,8,0) tid=(20,1,0)
GPGPU-Sim uArch: cycles simulated: 54500  inst.: 25682401 (ipc=471.2) sim_rate=270341 (inst/sec) elapsed = 0:0:01:35 / Tue Apr 16 16:57:02 2019
GPGPU-Sim PTX: 28900000 instructions simulated : ctaid=(2,22,0) tid=(27,1,0)
GPGPU-Sim PTX: 29000000 instructions simulated : ctaid=(2,2,0) tid=(22,2,0)
GPGPU-Sim PTX: 29100000 instructions simulated : ctaid=(1,6,0) tid=(10,3,0)
GPGPU-Sim uArch: cycles simulated: 55000  inst.: 25946895 (ipc=471.8) sim_rate=270280 (inst/sec) elapsed = 0:0:01:36 / Tue Apr 16 16:57:03 2019
GPGPU-Sim PTX: 29200000 instructions simulated : ctaid=(1,5,0) tid=(0,2,0)
GPGPU-Sim PTX: 29300000 instructions simulated : ctaid=(2,21,0) tid=(14,0,0)
GPGPU-Sim uArch: cycles simulated: 55500  inst.: 26198378 (ipc=472.0) sim_rate=270086 (inst/sec) elapsed = 0:0:01:37 / Tue Apr 16 16:57:04 2019
GPGPU-Sim PTX: 29400000 instructions simulated : ctaid=(2,13,0) tid=(19,1,0)
GPGPU-Sim PTX: 29500000 instructions simulated : ctaid=(2,10,0) tid=(0,2,0)
GPGPU-Sim PTX: 29600000 instructions simulated : ctaid=(2,24,0) tid=(7,3,0)
GPGPU-Sim uArch: cycles simulated: 56000  inst.: 26430738 (ipc=472.0) sim_rate=269701 (inst/sec) elapsed = 0:0:01:38 / Tue Apr 16 16:57:05 2019
GPGPU-Sim PTX: 29700000 instructions simulated : ctaid=(0,6,0) tid=(6,0,0)
GPGPU-Sim PTX: 29800000 instructions simulated : ctaid=(1,12,0) tid=(10,3,0)
GPGPU-Sim PTX: 29900000 instructions simulated : ctaid=(2,17,0) tid=(22,0,0)
GPGPU-Sim uArch: cycles simulated: 56500  inst.: 26691709 (ipc=472.4) sim_rate=269613 (inst/sec) elapsed = 0:0:01:39 / Tue Apr 16 16:57:06 2019
GPGPU-Sim PTX: 30000000 instructions simulated : ctaid=(2,17,0) tid=(25,1,0)
GPGPU-Sim PTX: 30100000 instructions simulated : ctaid=(0,2,0) tid=(12,3,0)
GPGPU-Sim PTX: 30200000 instructions simulated : ctaid=(2,17,0) tid=(20,0,0)
GPGPU-Sim uArch: cycles simulated: 57000  inst.: 26960168 (ipc=473.0) sim_rate=269601 (inst/sec) elapsed = 0:0:01:40 / Tue Apr 16 16:57:07 2019
GPGPU-Sim PTX: 30300000 instructions simulated : ctaid=(1,18,0) tid=(17,3,0)
GPGPU-Sim PTX: 30400000 instructions simulated : ctaid=(0,1,0) tid=(16,1,0)
GPGPU-Sim PTX: 30500000 instructions simulated : ctaid=(0,10,0) tid=(6,2,0)
GPGPU-Sim uArch: cycles simulated: 57500  inst.: 27208535 (ipc=473.2) sim_rate=269391 (inst/sec) elapsed = 0:0:01:41 / Tue Apr 16 16:57:08 2019
GPGPU-Sim PTX: 30600000 instructions simulated : ctaid=(1,13,0) tid=(19,1,0)
GPGPU-Sim PTX: 30700000 instructions simulated : ctaid=(1,18,0) tid=(13,1,0)
GPGPU-Sim PTX: 30800000 instructions simulated : ctaid=(2,2,0) tid=(16,1,0)
GPGPU-Sim uArch: cycles simulated: 58000  inst.: 27444381 (ipc=473.2) sim_rate=269062 (inst/sec) elapsed = 0:0:01:42 / Tue Apr 16 16:57:09 2019
GPGPU-Sim PTX: 30900000 instructions simulated : ctaid=(1,3,0) tid=(8,1,0)
GPGPU-Sim PTX: 31000000 instructions simulated : ctaid=(2,18,0) tid=(17,1,0)
GPGPU-Sim PTX: 31100000 instructions simulated : ctaid=(2,23,0) tid=(3,2,0)
GPGPU-Sim uArch: cycles simulated: 58500  inst.: 27728551 (ipc=474.0) sim_rate=269209 (inst/sec) elapsed = 0:0:01:43 / Tue Apr 16 16:57:10 2019
GPGPU-Sim PTX: 31200000 instructions simulated : ctaid=(3,8,0) tid=(2,1,0)
GPGPU-Sim PTX: 31300000 instructions simulated : ctaid=(3,4,0) tid=(0,0,0)
GPGPU-Sim PTX: 31400000 instructions simulated : ctaid=(0,21,0) tid=(4,0,0)
GPGPU-Sim PTX: 31500000 instructions simulated : ctaid=(2,1,0) tid=(29,1,0)
GPGPU-Sim PTX: 31600000 instructions simulated : ctaid=(1,22,0) tid=(12,2,0)
GPGPU-Sim uArch: cycles simulated: 59500  inst.: 28163834 (ipc=473.3) sim_rate=270806 (inst/sec) elapsed = 0:0:01:44 / Tue Apr 16 16:57:11 2019
GPGPU-Sim PTX: 31700000 instructions simulated : ctaid=(0,3,0) tid=(18,2,0)
GPGPU-Sim PTX: 31800000 instructions simulated : ctaid=(1,12,0) tid=(13,3,0)
GPGPU-Sim PTX: 31900000 instructions simulated : ctaid=(2,13,0) tid=(17,3,0)
GPGPU-Sim uArch: cycles simulated: 60000  inst.: 28443450 (ipc=474.1) sim_rate=270890 (inst/sec) elapsed = 0:0:01:45 / Tue Apr 16 16:57:12 2019
GPGPU-Sim PTX: 32000000 instructions simulated : ctaid=(1,8,0) tid=(18,2,0)
GPGPU-Sim PTX: 32100000 instructions simulated : ctaid=(1,4,0) tid=(21,2,0)
GPGPU-Sim uArch: cycles simulated: 60500  inst.: 28679378 (ipc=474.0) sim_rate=270560 (inst/sec) elapsed = 0:0:01:46 / Tue Apr 16 16:57:13 2019
GPGPU-Sim PTX: 32200000 instructions simulated : ctaid=(0,4,0) tid=(9,0,0)
GPGPU-Sim PTX: 32300000 instructions simulated : ctaid=(0,7,0) tid=(11,2,0)
GPGPU-Sim PTX: 32400000 instructions simulated : ctaid=(2,9,0) tid=(5,1,0)
GPGPU-Sim uArch: cycles simulated: 61000  inst.: 28912341 (ipc=474.0) sim_rate=270208 (inst/sec) elapsed = 0:0:01:47 / Tue Apr 16 16:57:14 2019
GPGPU-Sim PTX: 32500000 instructions simulated : ctaid=(1,18,0) tid=(2,1,0)
GPGPU-Sim PTX: 32600000 instructions simulated : ctaid=(0,11,0) tid=(31,1,0)
GPGPU-Sim PTX: 32700000 instructions simulated : ctaid=(2,11,0) tid=(25,2,0)
GPGPU-Sim uArch: cycles simulated: 61500  inst.: 29185196 (ipc=474.6) sim_rate=270233 (inst/sec) elapsed = 0:0:01:48 / Tue Apr 16 16:57:15 2019
GPGPU-Sim PTX: 32800000 instructions simulated : ctaid=(2,10,0) tid=(6,2,0)
GPGPU-Sim PTX: 32900000 instructions simulated : ctaid=(1,16,0) tid=(1,3,0)
GPGPU-Sim PTX: 33000000 instructions simulated : ctaid=(1,19,0) tid=(27,2,0)
GPGPU-Sim uArch: cycles simulated: 62000  inst.: 29432951 (ipc=474.7) sim_rate=270027 (inst/sec) elapsed = 0:0:01:49 / Tue Apr 16 16:57:16 2019
GPGPU-Sim PTX: 33100000 instructions simulated : ctaid=(2,4,0) tid=(28,1,0)
GPGPU-Sim PTX: 33200000 instructions simulated : ctaid=(0,3,0) tid=(4,0,0)
GPGPU-Sim PTX: 33300000 instructions simulated : ctaid=(2,24,0) tid=(27,2,0)
GPGPU-Sim uArch: cycles simulated: 62500  inst.: 29675289 (ipc=474.8) sim_rate=269775 (inst/sec) elapsed = 0:0:01:50 / Tue Apr 16 16:57:17 2019
GPGPU-Sim PTX: 33400000 instructions simulated : ctaid=(1,3,0) tid=(11,0,0)
GPGPU-Sim PTX: 33500000 instructions simulated : ctaid=(1,8,0) tid=(17,3,0)
GPGPU-Sim PTX: 33600000 instructions simulated : ctaid=(0,4,0) tid=(13,1,0)
GPGPU-Sim uArch: cycles simulated: 63000  inst.: 29936295 (ipc=475.2) sim_rate=269696 (inst/sec) elapsed = 0:0:01:51 / Tue Apr 16 16:57:18 2019
GPGPU-Sim PTX: 33700000 instructions simulated : ctaid=(3,1,0) tid=(3,2,0)
GPGPU-Sim PTX: 33800000 instructions simulated : ctaid=(2,6,0) tid=(14,2,0)
GPGPU-Sim PTX: 33900000 instructions simulated : ctaid=(1,21,0) tid=(1,3,0)
GPGPU-Sim PTX: 34000000 instructions simulated : ctaid=(1,24,0) tid=(6,0,0)
GPGPU-Sim PTX: 34100000 instructions simulated : ctaid=(1,8,0) tid=(5,2,0)
GPGPU-Sim uArch: cycles simulated: 64000  inst.: 30431278 (ipc=475.5) sim_rate=271707 (inst/sec) elapsed = 0:0:01:52 / Tue Apr 16 16:57:19 2019
GPGPU-Sim PTX: 34200000 instructions simulated : ctaid=(3,0,0) tid=(13,0,0)
GPGPU-Sim PTX: 34300000 instructions simulated : ctaid=(1,0,0) tid=(22,2,0)
GPGPU-Sim PTX: 34400000 instructions simulated : ctaid=(2,7,0) tid=(19,1,0)
GPGPU-Sim uArch: cycles simulated: 64500  inst.: 30695117 (ipc=475.9) sim_rate=271638 (inst/sec) elapsed = 0:0:01:53 / Tue Apr 16 16:57:20 2019
GPGPU-Sim PTX: 34500000 instructions simulated : ctaid=(1,8,0) tid=(31,2,0)
GPGPU-Sim PTX: 34600000 instructions simulated : ctaid=(2,9,0) tid=(29,2,0)
GPGPU-Sim PTX: 34700000 instructions simulated : ctaid=(0,11,0) tid=(23,3,0)
GPGPU-Sim uArch: cycles simulated: 65000  inst.: 30922990 (ipc=475.7) sim_rate=271254 (inst/sec) elapsed = 0:0:01:54 / Tue Apr 16 16:57:21 2019
GPGPU-Sim PTX: 34800000 instructions simulated : ctaid=(0,3,0) tid=(7,0,0)
GPGPU-Sim PTX: 34900000 instructions simulated : ctaid=(1,2,0) tid=(16,1,0)
GPGPU-Sim PTX: 35000000 instructions simulated : ctaid=(1,17,0) tid=(30,1,0)
GPGPU-Sim uArch: cycles simulated: 65500  inst.: 31186381 (ipc=476.1) sim_rate=271185 (inst/sec) elapsed = 0:0:01:55 / Tue Apr 16 16:57:22 2019
GPGPU-Sim PTX: 35100000 instructions simulated : ctaid=(1,8,0) tid=(7,0,0)
GPGPU-Sim PTX: 35200000 instructions simulated : ctaid=(1,8,0) tid=(16,0,0)
GPGPU-Sim uArch: cycles simulated: 66000  inst.: 31440623 (ipc=476.4) sim_rate=271039 (inst/sec) elapsed = 0:0:01:56 / Tue Apr 16 16:57:23 2019
GPGPU-Sim PTX: 35300000 instructions simulated : ctaid=(0,3,0) tid=(25,2,0)
GPGPU-Sim PTX: 35400000 instructions simulated : ctaid=(2,3,0) tid=(18,3,0)
GPGPU-Sim PTX: 35500000 instructions simulated : ctaid=(1,12,0) tid=(15,1,0)
GPGPU-Sim uArch: cycles simulated: 66500  inst.: 31655804 (ipc=476.0) sim_rate=270562 (inst/sec) elapsed = 0:0:01:57 / Tue Apr 16 16:57:24 2019
GPGPU-Sim PTX: 35600000 instructions simulated : ctaid=(2,13,0) tid=(27,0,0)
GPGPU-Sim PTX: 35700000 instructions simulated : ctaid=(2,8,0) tid=(16,1,0)
GPGPU-Sim PTX: 35800000 instructions simulated : ctaid=(2,16,0) tid=(16,2,0)
GPGPU-Sim uArch: cycles simulated: 67000  inst.: 31899169 (ipc=476.1) sim_rate=270331 (inst/sec) elapsed = 0:0:01:58 / Tue Apr 16 16:57:25 2019
GPGPU-Sim PTX: 35900000 instructions simulated : ctaid=(1,7,0) tid=(6,1,0)
GPGPU-Sim PTX: 36000000 instructions simulated : ctaid=(2,6,0) tid=(24,0,0)
GPGPU-Sim PTX: 36100000 instructions simulated : ctaid=(0,5,0) tid=(13,2,0)
GPGPU-Sim PTX: 36200000 instructions simulated : ctaid=(2,17,0) tid=(13,1,0)
GPGPU-Sim PTX: 36300000 instructions simulated : ctaid=(2,24,0) tid=(13,1,0)
GPGPU-Sim uArch: cycles simulated: 68000  inst.: 32388722 (ipc=476.3) sim_rate=272174 (inst/sec) elapsed = 0:0:01:59 / Tue Apr 16 16:57:26 2019
GPGPU-Sim PTX: 36400000 instructions simulated : ctaid=(2,2,0) tid=(6,1,0)
GPGPU-Sim PTX: 36500000 instructions simulated : ctaid=(2,2,0) tid=(0,1,0)
GPGPU-Sim PTX: 36600000 instructions simulated : ctaid=(0,5,0) tid=(20,3,0)
GPGPU-Sim uArch: cycles simulated: 68500  inst.: 32628590 (ipc=476.3) sim_rate=271904 (inst/sec) elapsed = 0:0:02:00 / Tue Apr 16 16:57:27 2019
GPGPU-Sim PTX: 36700000 instructions simulated : ctaid=(1,5,0) tid=(14,0,0)
GPGPU-Sim PTX: 36800000 instructions simulated : ctaid=(1,3,0) tid=(21,2,0)
GPGPU-Sim PTX: 36900000 instructions simulated : ctaid=(2,7,0) tid=(8,2,0)
GPGPU-Sim uArch: cycles simulated: 69000  inst.: 32899093 (ipc=476.8) sim_rate=271893 (inst/sec) elapsed = 0:0:02:01 / Tue Apr 16 16:57:28 2019
GPGPU-Sim PTX: 37000000 instructions simulated : ctaid=(0,4,0) tid=(5,2,0)
GPGPU-Sim PTX: 37100000 instructions simulated : ctaid=(1,18,0) tid=(25,0,0)
GPGPU-Sim uArch: cycles simulated: 69500  inst.: 33122602 (ipc=476.6) sim_rate=271496 (inst/sec) elapsed = 0:0:02:02 / Tue Apr 16 16:57:29 2019
GPGPU-Sim PTX: 37200000 instructions simulated : ctaid=(2,12,0) tid=(19,0,0)
GPGPU-Sim PTX: 37300000 instructions simulated : ctaid=(3,1,0) tid=(2,2,0)
GPGPU-Sim PTX: 37400000 instructions simulated : ctaid=(0,7,0) tid=(6,3,0)
GPGPU-Sim uArch: cycles simulated: 70000  inst.: 33383800 (ipc=476.9) sim_rate=271413 (inst/sec) elapsed = 0:0:02:03 / Tue Apr 16 16:57:30 2019
GPGPU-Sim PTX: 37500000 instructions simulated : ctaid=(1,12,0) tid=(1,0,0)
GPGPU-Sim PTX: 37600000 instructions simulated : ctaid=(1,16,0) tid=(25,0,0)
GPGPU-Sim PTX: 37700000 instructions simulated : ctaid=(2,18,0) tid=(31,2,0)
GPGPU-Sim uArch: cycles simulated: 70500  inst.: 33654266 (ipc=477.4) sim_rate=271405 (inst/sec) elapsed = 0:0:02:04 / Tue Apr 16 16:57:31 2019
GPGPU-Sim PTX: 37800000 instructions simulated : ctaid=(2,10,0) tid=(4,0,0)
GPGPU-Sim PTX: 37900000 instructions simulated : ctaid=(1,23,0) tid=(20,3,0)
GPGPU-Sim PTX: 38000000 instructions simulated : ctaid=(0,13,0) tid=(7,0,0)
GPGPU-Sim uArch: cycles simulated: 71000  inst.: 33882028 (ipc=477.2) sim_rate=271056 (inst/sec) elapsed = 0:0:02:05 / Tue Apr 16 16:57:32 2019
GPGPU-Sim PTX: 38100000 instructions simulated : ctaid=(2,5,0) tid=(0,2,0)
GPGPU-Sim PTX: 38200000 instructions simulated : ctaid=(1,3,0) tid=(0,0,0)
GPGPU-Sim PTX: 38300000 instructions simulated : ctaid=(1,9,0) tid=(8,2,0)
GPGPU-Sim PTX: 38400000 instructions simulated : ctaid=(1,21,0) tid=(30,2,0)
GPGPU-Sim PTX: 38500000 instructions simulated : ctaid=(3,10,0) tid=(3,0,0)
GPGPU-Sim uArch: cycles simulated: 72000  inst.: 34377419 (ipc=477.5) sim_rate=272836 (inst/sec) elapsed = 0:0:02:06 / Tue Apr 16 16:57:33 2019
GPGPU-Sim PTX: 38600000 instructions simulated : ctaid=(1,22,0) tid=(11,2,0)
GPGPU-Sim PTX: 38700000 instructions simulated : ctaid=(2,10,0) tid=(13,2,0)
GPGPU-Sim PTX: 38800000 instructions simulated : ctaid=(2,18,0) tid=(0,2,0)
GPGPU-Sim uArch: cycles simulated: 72500  inst.: 34621527 (ipc=477.5) sim_rate=272610 (inst/sec) elapsed = 0:0:02:07 / Tue Apr 16 16:57:34 2019
GPGPU-Sim PTX: 38900000 instructions simulated : ctaid=(2,0,0) tid=(31,0,0)
GPGPU-Sim PTX: 39000000 instructions simulated : ctaid=(1,6,0) tid=(21,2,0)
GPGPU-Sim PTX: 39100000 instructions simulated : ctaid=(0,18,0) tid=(13,2,0)
GPGPU-Sim uArch: cycles simulated: 73000  inst.: 34875805 (ipc=477.8) sim_rate=272467 (inst/sec) elapsed = 0:0:02:08 / Tue Apr 16 16:57:35 2019
GPGPU-Sim PTX: 39200000 instructions simulated : ctaid=(0,14,0) tid=(8,1,0)
GPGPU-Sim PTX: 39300000 instructions simulated : ctaid=(0,22,0) tid=(28,1,0)
GPGPU-Sim PTX: 39400000 instructions simulated : ctaid=(0,2,0) tid=(6,1,0)
GPGPU-Sim uArch: cycles simulated: 73500  inst.: 35123582 (ipc=477.9) sim_rate=272275 (inst/sec) elapsed = 0:0:02:09 / Tue Apr 16 16:57:36 2019
GPGPU-Sim PTX: 39500000 instructions simulated : ctaid=(2,20,0) tid=(12,2,0)
GPGPU-Sim PTX: 39600000 instructions simulated : ctaid=(3,24,0) tid=(25,2,0)
GPGPU-Sim PTX: 39700000 instructions simulated : ctaid=(0,6,0) tid=(1,3,0)
GPGPU-Sim uArch: cycles simulated: 74000  inst.: 35384066 (ipc=478.2) sim_rate=272185 (inst/sec) elapsed = 0:0:02:10 / Tue Apr 16 16:57:37 2019
GPGPU-Sim PTX: 39800000 instructions simulated : ctaid=(2,8,0) tid=(25,0,0)
GPGPU-Sim PTX: 39900000 instructions simulated : ctaid=(0,18,0) tid=(6,3,0)
GPGPU-Sim uArch: cycles simulated: 74500  inst.: 35613290 (ipc=478.0) sim_rate=271857 (inst/sec) elapsed = 0:0:02:11 / Tue Apr 16 16:57:38 2019
GPGPU-Sim PTX: 40000000 instructions simulated : ctaid=(1,19,0) tid=(0,1,0)
GPGPU-Sim PTX: 40100000 instructions simulated : ctaid=(2,2,0) tid=(6,1,0)
GPGPU-Sim PTX: 40200000 instructions simulated : ctaid=(2,4,0) tid=(2,2,0)
GPGPU-Sim uArch: cycles simulated: 75000  inst.: 35875282 (ipc=478.3) sim_rate=271782 (inst/sec) elapsed = 0:0:02:12 / Tue Apr 16 16:57:39 2019
GPGPU-Sim PTX: 40300000 instructions simulated : ctaid=(0,3,0) tid=(27,0,0)
GPGPU-Sim PTX: 40400000 instructions simulated : ctaid=(2,1,0) tid=(30,0,0)
GPGPU-Sim PTX: 40500000 instructions simulated : ctaid=(2,16,0) tid=(11,2,0)
[...]
traffic_breakdown_memtocore[GLOBAL_ACC_W] = 530000 {8:66250,}
traffic_breakdown_memtocore[INST_ACC_R] = 28560 {136:210,}
maxmrqlatency = 624 
maxdqlatency = 0 
maxmflatency = 1218 
averagemflatency = 254 
max_icnt2mem_latency = 517 
max_icnt2sh_latency = 173646 
mrq_lat_table:51563 	3687 	3843 	9428 	23320 	20991 	10956 	2034 	185 	6 	0 	0 	0 	0 	0 	0 	0 	0 	0 	0 	0 	0 	0 	0 	0 	0 	0 	0 	0 	0 	0 	0 	
dq_lat_table:0 	0 	0 	0 	0 	0 	0 	0 	0 	0 	0 	0 	0 	0 	0 	0 	0 	0 	0 	0 	0 	0 	0 	0 	0 	0 	0 	0 	0 	0 	0 	0 	
mf_lat_table:0 	0 	0 	0 	0 	0 	0 	86282 	92721 	1844 	147 	0 	0 	0 	0 	0 	0 	0 	0 	0 	0 	0 	0 	0 	0 	0 	0 	0 	0 	0 	0 	0 	
icnt2mem_lat_table:0 	0 	0 	118594 	50047 	10239 	1587 	443 	292 	2 	0 	0 	0 	0 	0 	0 	0 	0 	0 	0 	0 	0 	0 	0 	
icnt2sh_lat_table:0 	0 	0 	23991 	64922 	25121 	710 	0 	0 	0 	0 	0 	1291 	3500 	7541 	15092 	29969 	8857 	0 	0 	0 	0 	0 	0 	
mf_lat_pw_table:0 	0 	0 	0 	0 	0 	0 	261 	82 	2 	0 	0 	0 	0 	0 	0 	0 	0 	0 	0 	0 	0 	0 	0 	0 	0 	0 	0 	0 	0 	0 	0 	
maximum concurrent accesses to same row:
dram[0]:        36        21        28        21        20        16        32        32        65        77        19        45        23        31        18        28 
dram[1]:        22        30        17        20        20        23        32        32        61        67        19        37        23        19        19        26 
dram[2]:        27        28        16        17        20        19        32        32        63        67        21        41        16        33        18        25 
dram[3]:        30        28        30        30        19        21        32        32        62        72        21        35        21        24        20        41 
dram[4]:        29        27        21        19        26        25        32        32        62        66        26        47        22        18        21        49 
dram[5]:        20        46        16        26        21        20        32        32        70        64        31        44        28        22        24        19 
maximum service time to same row:
dram[0]:     11653     10927     14009     14126     13912     14312     15789     15565     11841     11927     10995     10937     10890     10648     10919     10799 
dram[1]:     10934     12147     13985     14340     13912     14311     15547     16002     11957     11846     11035     11154     10940     10646     10963     10797 
dram[2]:     11512     12417     14010     14213     13918     14420     15120     15953     12021     11880     11122     10969     10915     10685     10538     11189 
dram[3]:     10792     12360     14005     14110     13930     14318     15573     16186     11935     12339     10674     10783     10839     11252     10702     10874 
dram[4]:     10137     12371     14041     13990     13989     14258     15608     16182     11745     12113     10790     10959     10602     10823     10791     11100 
dram[5]:     10942     12441     14185     14035     13723     13628     15822     16156     11700     11841     10661     10810     10426     10615     10489     11065 
average row accesses per activate:
dram[0]:  2.856512  2.783080  2.811816  2.832967  2.885906  2.817597  2.856838  2.914474  2.974026  3.004339  2.975610  2.916115  2.852097  2.875278  2.730932  2.764831 
dram[1]:  2.822126  2.876682  2.838137  2.774194  2.903371  2.857768  2.988739  2.735537  3.085393  3.151584  2.830149  3.022779  2.672199  2.841410  2.834071  2.835141 
dram[2]:  2.865342  2.905830  2.935335  2.838074  2.835165  2.822126  2.946785  2.797468  3.010941  3.025918  2.825263  3.048611  2.710692  2.781585  2.727273  2.990826 
dram[3]:  2.730526  3.007059  2.808791  2.745763  2.648980  2.873614  3.029680  2.914474  2.952688  3.134529  2.908297  3.057870  2.743041  2.897778  2.880899  2.806522 
dram[4]:  2.640657  2.986143  2.600410  2.947846  2.908482  2.895787  2.928730  2.941834  3.050998  3.006508  2.898268  2.867102  2.730361  2.844639  2.735729  2.920815 
dram[5]:  2.848684  2.801310  2.863535  2.875556  2.784188  2.912556  2.711340  2.746362  2.948608  3.010846  2.891775  2.951111  2.909707  2.917411  2.826840  2.781857 
average row locality = 126013/43897 = 2.870652
number of total memory accesses made:
dram[0]:         0         0         0         0         0         0         0         0         0         0         0         0         0         0         0         0 
dram[1]:         0         0         0         0         0         0         0         0         0         0         0         0         0         0         0         0 
dram[2]:         0         0         0         0         0         0         0         0         0         0         0         0         0         0         0         0 
dram[3]:         0         0         0         0         0         0         0         0         0         0         0         0         0         0         0         0 
dram[4]:         0         0         0         0         0         0         0         0         0         0         0         0         0         0         0         0 
dram[5]:         0         0         0         0         0         0         0         0         0         0         0         0         0         0         0         0 
total accesses: 0
min_bank_accesses = 0!
min_chip_accesses = 0!
number of total read accesses:
dram[0]:       648       649       652       649       656       659       677       687       676       685       666       661       651       648       649       648 
dram[1]:       647       650       647       649       658       658       679       680       682       681       662       665       647       649       644       650 
dram[2]:       646       653       646       651       653       661       677       684       679       681       660       663       655       645       647       648 
dram[3]:       646       649       646       646       658       659       679       682       680       685       658       666       647       651       648       650 
dram[4]:       646       654       642       648       656       661       681       679       680       682       663       661       650       647       647       648 
dram[5]:       651       648       650       648       657       659       680       680       679       682       662       666       650       646       650       646 
total reads: 63307
bank skew: 687/642 = 1.07
chip skew: 10561/10545 = 1.00
number of total write accesses:
dram[0]:       646       634       633       640       634       654       660       642       698       700       676       660       641       643       640       657 
dram[1]:       654       633       633       641       634       648       648       644       691       712       671       662       641       641       637       657 
dram[2]:       652       643       625       646       637       640       652       642       697       720       682       654       638       654       643       656 
dram[3]:       651       629       632       650       640       637       648       647       693       713       674       655       634       653       634       641 
dram[4]:       640       639       627       652       647       645       634       636       696       704       676       655       636       653       647       643 
dram[5]:       648       635       630       646       646       640       635       641       698       706       674       662       639       661       656       642 
total reads: 62706
bank skew: 720/625 = 1.15
chip skew: 10481/10430 = 1.00
average mf latency per bank:
dram[0]:        363       354       360       345       353       355       366       370       372       387       361       376       359       365       362       363
dram[1]:        354       362       362       356       350       364       372       370       379       388       358       368       358       360       356       373
dram[2]:        358       364       361       351       357       361       371       373       380       388       361       370       352       359       361       364
dram[3]:        350       370       355       353       359       360       371       367       379       385       359       382       363       360       363       372
dram[4]:        350       366       351       355       354       356       367       372       385       379       367       381       362       361       356       377
dram[5]:        349       360       347       362       358       367       369       370       383       374       363       365       374       361       360       360
maximum mf latency per bank:
dram[0]:        730       558       514       532       550       582       600       592      1083      1218       979       749       696       687       528       674
dram[1]:        631       661       610       553       520       568       532       537       970      1215       672       729       579       515       641       736
dram[2]:        608       600       547       475       601       498       492       594      1121      1150       529      1030       594       662       546       608
dram[3]:        524       644       517       615       577       496       526       572      1046      1181       658       885       668       524       650       705
dram[4]:        682       621       524       516       513       536       586       548      1154      1165       683       945       565       544       549       874
dram[5]:        571       745       507       635       556       598       480       549      1148      1026       669       935       786       592       800       533

Number of Memory Banks Accessed per Memory Operation per Warp (from 0):
0	0	0	0	0	0	0	0	0	0	0	0	0	0	0	0	0	0	0	0	0	0	0	0	0	0	0	0	0	0	0	0	0	0	0	0	0	0	0	0	0	0	0	0	0	0	0	0	0	0	0	0	0	0	0	0	0	0	0	0	0	0	0	0	0	0	0	0	0	0	0	0	0	0	0	0	0	0	0	0	0	0	0	0	0	0	0	0	0	0	0	0	0	0	0	0	
Average # of Memory Banks Accessed per Memory Operation per Warp=-nan

position of mrq chosen
0	0	0	0	0	0	0	0	0	0	0	0	0	0	0	0	

average position of mrq chosen = -nan
Memory Partition 0: 
Cache L2_bank_000:
MSHR contents

Cache L2_bank_001:
MSHR contents

In Dram Latency Queue (total = 0): 
DRAM[0]: 16 bks, busW=4 BL=8 CL=12, tRRD=2 tCCD=6, tRCD=12 tRAS=28 tRP=12 tRC=40
n_cmd=229213 n_nop=177374 n_act=7336 n_pre=7320 n_req=21019 n_rd=21122 n_write=16061 bw_util=0.3244
n_activity=195154 dram_eff=0.3811
bk0: 1296a 197664i bk1: 1298a 197350i bk2: 1304a 198152i bk3: 1298a 198194i bk4: 1312a 198118i bk5: 1318a 197554i bk6: 1354a 196298i bk7: 1374a 196032i bk8: 1352a 195405i bk9: 1370a 195467i bk10: 1332a 196822i bk11: 1322a 197013i bk12: 1302a 196495i bk13: 1296a 196710i bk14: 1298a 195653i bk15: 1296a 196625i 
dram_util_bins: 0 0 0 0 0 0 0 0 0 0
dram_eff_bins: 0 0 0 0 0 0 0 0 0 0
mrqq: max=16 avg=2.80125
Memory Partition 1: 
Cache L2_bank_002:
MSHR contents

Cache L2_bank_003:
MSHR contents

In Dram Latency Queue (total = 0): 
DRAM[1]: 16 bks, busW=4 BL=8 CL=12, tRRD=2 tCCD=6, tRCD=12 tRAS=28 tRP=12 tRC=40
n_cmd=229213 n_nop=177459 n_act=7299 n_pre=7283 n_req=20995 n_rd=21096 n_write=16076 bw_util=0.3243
n_activity=195224 dram_eff=0.3808
bk0: 1294a 198086i bk1: 1300a 197805i bk2: 1294a 198444i bk3: 1298a 197349i bk4: 1316a 197500i bk5: 1316a 196796i bk6: 1358a 197522i bk7: 1360a 195459i bk8: 1364a 195805i bk9: 1362a 196402i bk10: 1324a 196664i bk11: 1330a 196885i bk12: 1294a 196110i bk13: 1298a 196263i bk14: 1288a 196257i bk15: 1300a 195887i 
dram_util_bins: 0 0 0 0 0 0 0 0 0 0
dram_eff_bins: 0 0 0 0 0 0 0 0 0 0
mrqq: max=16 avg=2.79703
Memory Partition 2: 
Cache L2_bank_004:
MSHR contents

Cache L2_bank_005:
MSHR contents

In Dram Latency Queue (total = 0): 
DRAM[2]: 16 bks, busW=4 BL=8 CL=12, tRRD=2 tCCD=6, tRCD=12 tRAS=28 tRP=12 tRC=40
n_cmd=229213 n_nop=177421 n_act=7310 n_pre=7294 n_req=21030 n_rd=21098 n_write=16090 bw_util=0.3245
n_activity=195134 dram_eff=0.3812
bk0: 1292a 197873i bk1: 1306a 196840i bk2: 1292a 198908i bk3: 1302a 196638i bk4: 1306a 197542i bk5: 1322a 197032i bk6: 1354a 196819i bk7: 1368a 196099i bk8: 1358a 195683i bk9: 1362a 195817i bk10: 1320a 196134i bk11: 1326a 196788i bk12: 1310a 196529i bk13: 1290a 195523i bk14: 1294a 196007i bk15: 1296a 196782i 
dram_util_bins: 0 0 0 0 0 0 0 0 0 0
dram_eff_bins: 0 0 0 0 0 0 0 0 0 0
mrqq: max=16 avg=2.81349
Memory Partition 3: 
Cache L2_bank_006:
MSHR contents

Cache L2_bank_007:
MSHR contents

In Dram Latency Queue (total = 0): 
DRAM[3]: 16 bks, busW=4 BL=8 CL=12, tRRD=2 tCCD=6, tRCD=12 tRAS=28 tRP=12 tRC=40
n_cmd=229213 n_nop=177531 n_act=7285 n_pre=7269 n_req=20981 n_rd=21100 n_write=16028 bw_util=0.324
n_activity=196151 dram_eff=0.3786
bk0: 1292a 197313i bk1: 1298a 197966i bk2: 1292a 197908i bk3: 1292a 197247i bk4: 1316a 197289i bk5: 1318a 197111i bk6: 1358a 197431i bk7: 1364a 196376i bk8: 1360a 196729i bk9: 1370a 197011i bk10: 1316a 196445i bk11: 1332a 196578i bk12: 1294a 196999i bk13: 1302a 196311i bk14: 1296a 196487i bk15: 1300a 196789i 
dram_util_bins: 0 0 0 0 0 0 0 0 0 0
dram_eff_bins: 0 0 0 0 0 0 0 0 0 0
mrqq: max=16 avg=2.74065
Memory Partition 4: 
Cache L2_bank_008:
MSHR contents

Cache L2_bank_009:
MSHR contents

In Dram Latency Queue (total = 0): 
DRAM[4]: 16 bks, busW=4 BL=8 CL=12, tRRD=2 tCCD=6, tRCD=12 tRAS=28 tRP=12 tRC=40
n_cmd=229213 n_nop=177451 n_act=7320 n_pre=7304 n_req=20975 n_rd=21090 n_write=16048 bw_util=0.324
n_activity=196114 dram_eff=0.3787
bk0: 1292a 197289i bk1: 1308a 198089i bk2: 1284a 197070i bk3: 1296a 197312i bk4: 1312a 197576i bk5: 1322a 197216i bk6: 1362a 197523i bk7: 1358a 196409i bk8: 1360a 196221i bk9: 1364a 195942i bk10: 1326a 196586i bk11: 1322a 197406i bk12: 1300a 196845i bk13: 1294a 197097i bk14: 1294a 195865i bk15: 1296a 196745i 
dram_util_bins: 0 0 0 0 0 0 0 0 0 0
dram_eff_bins: 0 0 0 0 0 0 0 0 0 0
mrqq: max=16 avg=2.82353
Memory Partition 5: 
Cache L2_bank_010:
MSHR contents

Cache L2_bank_011:
MSHR contents

In Dram Latency Queue (total = 0): 
DRAM[5]: 16 bks, busW=4 BL=8 CL=12, tRRD=2 tCCD=6, tRCD=12 tRAS=28 tRP=12 tRC=40
n_cmd=229213 n_nop=177329 n_act=7347 n_pre=7331 n_req=21013 n_rd=21108 n_write=16098 bw_util=0.3246
n_activity=195668 dram_eff=0.3803
bk0: 1302a 197801i bk1: 1296a 197405i bk2: 1300a 197880i bk3: 1296a 197055i bk4: 1314a 196887i bk5: 1318a 196579i bk6: 1360a 196472i bk7: 1360a 196023i bk8: 1358a 196883i bk9: 1364a 196134i bk10: 1324a 196937i bk11: 1332a 196964i bk12: 1300a 197012i bk13: 1292a 196649i bk14: 1300a 197643i bk15: 1292a 196748i 
dram_util_bins: 0 0 0 0 0 0 0 0 0 0
dram_eff_bins: 0 0 0 0 0 0 0 0 0 0
mrqq: max=16 avg=2.71116

========= L2 cache stats =========
L2_cache_bank[0]: Access = 15119, Miss = 5275, Miss_rate = 0.349, Pending_hits = 3164, Reservation_fails = 794
L2_cache_bank[1]: Access = 15106, Miss = 5286, Miss_rate = 0.350, Pending_hits = 3193, Reservation_fails = 571
L2_cache_bank[2]: Access = 15131, Miss = 5266, Miss_rate = 0.348, Pending_hits = 3078, Reservation_fails = 301
L2_cache_bank[3]: Access = 15076, Miss = 5282, Miss_rate = 0.350, Pending_hits = 3286, Reservation_fails = 429
L2_cache_bank[4]: Access = 15135, Miss = 5263, Miss_rate = 0.348, Pending_hits = 3122, Reservation_fails = 319
L2_cache_bank[5]: Access = 15077, Miss = 5286, Miss_rate = 0.351, Pending_hits = 3299, Reservation_fails = 404
L2_cache_bank[6]: Access = 15139, Miss = 5262, Miss_rate = 0.348, Pending_hits = 3118, Reservation_fails = 591
L2_cache_bank[7]: Access = 15084, Miss = 5288, Miss_rate = 0.351, Pending_hits = 3177, Reservation_fails = 407
L2_cache_bank[8]: Access = 15082, Miss = 5265, Miss_rate = 0.349, Pending_hits = 3097, Reservation_fails = 256
L2_cache_bank[9]: Access = 15074, Miss = 5280, Miss_rate = 0.350, Pending_hits = 3133, Reservation_fails = 545
L2_cache_bank[10]: Access = 15082, Miss = 5279, Miss_rate = 0.350, Pending_hits = 3139, Reservation_fails = 552
L2_cache_bank[11]: Access = 15099, Miss = 5275, Miss_rate = 0.349, Pending_hits = 3068, Reservation_fails = 423
L2_total_cache_accesses = 181204
L2_total_cache_misses = 63307
L2_total_cache_miss_rate = 0.3494
L2_total_cache_pending_hits = 37874
L2_total_cache_reservation_fails = 5592
L2_total_cache_breakdown:
	L2_cache_stats_breakdown[GLOBAL_ACC_R][HIT] = 62670
	L2_cache_stats_breakdown[GLOBAL_ACC_R][HIT_RESERVED] = 20257
	L2_cache_stats_breakdown[GLOBAL_ACC_R][MISS] = 31802
	L2_cache_stats_breakdown[GLOBAL_ACC_R][RESERVATION_FAIL] = 4050
	L2_cache_stats_breakdown[CONST_ACC_R][HIT] = 11
	L2_cache_stats_breakdown[CONST_ACC_R][HIT_RESERVED] = 3
	L2_cache_stats_breakdown[CONST_ACC_R][MISS] = 1
	L2_cache_stats_breakdown[CONST_ACC_R][RESERVATION_FAIL] = 108
	L2_cache_stats_breakdown[GLOBAL_ACC_W][HIT] = 17187
	L2_cache_stats_breakdown[GLOBAL_ACC_W][HIT_RESERVED] = 17573
	L2_cache_stats_breakdown[GLOBAL_ACC_W][MISS] = 31490
	L2_cache_stats_breakdown[GLOBAL_ACC_W][RESERVATION_FAIL] = 145
	L2_cache_stats_breakdown[INST_ACC_R][HIT] = 155
	L2_cache_stats_breakdown[INST_ACC_R][HIT_RESERVED] = 41
	L2_cache_stats_breakdown[INST_ACC_R][MISS] = 14
	L2_cache_stats_breakdown[INST_ACC_R][RESERVATION_FAIL] = 1289
L2_cache_data_port_util = 0.154
L2_cache_fill_port_util = 0.122

icnt_total_pkts_mem_to_simt=640990
icnt_total_pkts_simt_to_mem=341204
LD_mem_lat_dist  0 0 0 0 0 0 0 0 0 0 0 0 0 0 0 0 0 0 0 0 0 0 0 0 0 0 0
ST_mem_lat_dist  0 0 0 0 0 0 0 0 0 0 0 0 0 0 0 0 0 0 0 0 0 0 0 0 0 0 0
----------------------------Interconnect-DETAILS--------------------------------
Class 0:
Packet latency average = 16.9079
	minimum = 6
	maximum = 426
Network latency average = 13.6568
	minimum = 6
	maximum = 390
Slowest packet = 5812
Flit latency average = 12.1153
	minimum = 6
	maximum = 390
Slowest flit = 17232
Fragmentation average = 0.00660306
	minimum = 0
	maximum = 337
Injected packet rate average = 0.0772977
	minimum = 0.0593676 (at node 13)
	maximum = 0.0871826 (at node 21)
Accepted packet rate average = 0.0772977
	minimum = 0.0593676 (at node 13)
	maximum = 0.0871826 (at node 21)
Injected flit rate average = 0.209491
	minimum = 0.110045 (at node 13)
	maximum = 0.308713 (at node 21)
Accepted flit rate average= 0.209491
	minimum = 0.163567 (at node 24)
	maximum = 0.271574 (at node 3)
Injected packet length average = 2.71019
Accepted packet length average = 2.71019
Total in-flight flits = 0 (0 measured)
====== Overall Traffic Statistics ======
====== Traffic class 0 ======
Packet latency average = 16.9079 (1 samples)
	minimum = 6 (1 samples)
	maximum = 426 (1 samples)
Network latency average = 13.6568 (1 samples)
	minimum = 6 (1 samples)
	maximum = 390 (1 samples)
Flit latency average = 12.1153 (1 samples)
	minimum = 6 (1 samples)
	maximum = 390 (1 samples)
Fragmentation average = 0.00660306 (1 samples)
	minimum = 0 (1 samples)
	maximum = 337 (1 samples)
Injected packet rate average = 0.0772977 (1 samples)
	minimum = 0.0593676 (1 samples)
	maximum = 0.0871826 (1 samples)
Accepted packet rate average = 0.0772977 (1 samples)
	minimum = 0.0593676 (1 samples)
	maximum = 0.0871826 (1 samples)
Injected flit rate average = 0.209491 (1 samples)
	minimum = 0.110045 (1 samples)
	maximum = 0.308713 (1 samples)
Accepted flit rate average = 0.209491 (1 samples)
	minimum = 0.163567 (1 samples)
	maximum = 0.271574 (1 samples)
Injected packet size average = 2.71019 (1 samples)
Accepted packet size average = 2.71019 (1 samples)
Hops average = 1 (1 samples)
----------------------------END-of-Interconnect-DETAILS-------------------------


gpgpu_simulation_time = 0 days, 0 hrs, 4 min, 25 sec (265 sec)
gpgpu_simulation_rate = 274383 (inst/sec)
gpgpu_simulation_rate = 655 (cycle/sec)
GPGPU-Sim: synchronize waiting for inactive GPU simulation
GPGPU-Sim API: Stream Manager State
GPGPU-Sim: detected inactive GPU simulation thread

1x GPU_laplace3d: 264494.218750 (ms) 

Copy u2 to host: 116.379997 (ms) 

1x Gold_laplace3d: 31.646000 (ms) 
 

 rms error = 0.000000 
CUDA_SAFE_CALL( cudaFree(d_u1) );
CUDA_SAFE_CALL( cudaFree(d_u2) );
free(h_u1);
free(h_u2);
free(h_u3);

Press ENTER to exit...
