

        *** GPGPU-Sim Simulator Version 3.2.2  [build 0] ***


GPGPU-Sim PTX: simulation mode 0 (can change with PTX_SIM_MODE_FUNC environment variable:
               1=functional simulation only, 0=detailed performance simulator)
GPGPU-Sim: Configuration options:

-network_mode                           1 # Interconnection network mode
-inter_config_file   config_fermi_islip.icnt # Interconnection network config file
-gpgpu_ptx_use_cuobjdump                    1 # Use cuobjdump to extract ptx and sass from binaries
-gpgpu_experimental_lib_support                    0 # Try to extract code from cuda libraries [Broken because of unknown cudaGetExportTable]
-gpgpu_ptx_convert_to_ptxplus                    0 # Convert SASS (native ISA) to ptxplus and run ptxplus
-gpgpu_ptx_force_max_capability                   20 # Force maximum compute capability
-gpgpu_ptx_inst_debug_to_file                    0 # Dump executed instructions' debug information to file
-gpgpu_ptx_inst_debug_file       inst_debug.txt # Executed instructions' debug output file
-gpgpu_ptx_inst_debug_thread_uid                    1 # Thread UID for executed instructions' debug output
-gpgpu_simd_model                       1 # 1 = post-dominator
-gpgpu_shader_core_pipeline              1536:32 # shader core pipeline config, i.e., {<nthread>:<warpsize>}
-gpgpu_tex_cache:l1  4:128:24,L:R:m:N:L,F:128:4,128:2 # per-shader L1 texture cache  (READ-ONLY) config  {<nsets>:<bsize>:<assoc>,<rep>:<wr>:<alloc>:<wr_alloc>,<mshr>:<N>:<merge>,<mq>:<rf>}
-gpgpu_const_cache:l1 64:64:2,L:R:f:N:L,A:2:32,4 # per-shader L1 constant memory cache  (READ-ONLY) config  {<nsets>:<bsize>:<assoc>,<rep>:<wr>:<alloc>:<wr_alloc>,<mshr>:<N>:<merge>,<mq>} 
-gpgpu_cache:il1     4:128:4,L:R:f:N:L,A:2:32,4 # shader L1 instruction cache config  {<nsets>:<bsize>:<assoc>,<rep>:<wr>:<alloc>:<wr_alloc>,<mshr>:<N>:<merge>,<mq>} 
-gpgpu_cache:dl1     32:128:1,L:L:m:N:H,A:32:8,8 # per-shader L1 data cache config  {<nsets>:<bsize>:<assoc>,<rep>:<wr>:<alloc>:<wr_alloc>,<mshr>:<N>:<merge>,<mq> | none}
-gpgpu_cache:dl1PrefL1                 none # per-shader L1 data cache config  {<nsets>:<bsize>:<assoc>,<rep>:<wr>:<alloc>:<wr_alloc>,<mshr>:<N>:<merge>,<mq> | none}
-gpgpu_cache:dl1PreShared                 none # per-shader L1 data cache config  {<nsets>:<bsize>:<assoc>,<rep>:<wr>:<alloc>:<wr_alloc>,<mshr>:<N>:<merge>,<mq> | none}
-gmem_skip_L1D                          0 # global memory access skip L1D cache (implements -Xptxas -dlcm=cg, default=no skip)
-gpgpu_perfect_mem                      0 # enable perfect memory mode (no cache miss)
-n_regfile_gating_group                    4 # group of lanes that should be read/written together)
-gpgpu_clock_gated_reg_file                    0 # enable clock gated reg file for power calculations
-gpgpu_clock_gated_lanes                    0 # enable clock gated lanes for power calculations
-gpgpu_shader_registers                32768 # Number of registers per shader core. Limits number of concurrent CTAs. (default 8192)
-gpgpu_shader_cta                       8 # Maximum number of concurrent CTAs in shader (default 8)
-gpgpu_num_cta_barriers                   16 # Maximum number of named barriers per CTA (default 16)
-gpgpu_n_clusters                      15 # number of processing clusters
-gpgpu_n_cores_per_cluster                    1 # number of simd cores per cluster
-gpgpu_n_cluster_ejection_buffer_size                    8 # number of packets in ejection buffer
-gpgpu_n_ldst_response_buffer_size                    2 # number of response packets in ld/st unit ejection buffer
-gpgpu_shmem_size                   16384 # Size of shared memory per shader core (default 16kB)
-gpgpu_shmem_size                   49152 # Size of shared memory per shader core (default 16kB)
-gpgpu_shmem_size_PrefL1                16384 # Size of shared memory per shader core (default 16kB)
-gpgpu_shmem_size_PrefShared                16384 # Size of shared memory per shader core (default 16kB)
-gpgpu_shmem_num_banks                   32 # Number of banks in the shared memory in each shader core (default 16)
-gpgpu_shmem_limited_broadcast                    0 # Limit shared memory to do one broadcast per cycle (default on)
-gpgpu_shmem_warp_parts                    1 # Number of portions a warp is divided into for shared memory bank conflict check 
-gpgpu_warpdistro_shader                   -1 # Specify which shader core to collect the warp size distribution from
-gpgpu_warp_issue_shader                    0 # Specify which shader core to collect the warp issue distribution from
-gpgpu_local_mem_map                    1 # Mapping from local memory space address to simulated GPU physical address space (default = enabled)
-gpgpu_num_reg_banks                   16 # Number of register banks (default = 8)
-gpgpu_reg_bank_use_warp_id                    0 # Use warp ID in mapping registers to banks (default = off)
-gpgpu_operand_collector_num_units_sp                    6 # number of collector units (default = 4)
-gpgpu_operand_collector_num_units_sfu                    8 # number of collector units (default = 4)
-gpgpu_operand_collector_num_units_mem                    2 # number of collector units (default = 2)
-gpgpu_operand_collector_num_units_gen                    0 # number of collector units (default = 0)
-gpgpu_operand_collector_num_in_ports_sp                    2 # number of collector unit in ports (default = 1)
-gpgpu_operand_collector_num_in_ports_sfu                    1 # number of collector unit in ports (default = 1)
-gpgpu_operand_collector_num_in_ports_mem                    1 # number of collector unit in ports (default = 1)
-gpgpu_operand_collector_num_in_ports_gen                    0 # number of collector unit in ports (default = 0)
-gpgpu_operand_collector_num_out_ports_sp                    2 # number of collector unit in ports (default = 1)
-gpgpu_operand_collector_num_out_ports_sfu                    1 # number of collector unit in ports (default = 1)
-gpgpu_operand_collector_num_out_ports_mem                    1 # number of collector unit in ports (default = 1)
-gpgpu_operand_collector_num_out_ports_gen                    0 # number of collector unit in ports (default = 0)
-gpgpu_coalesce_arch                   13 # Coalescing arch (default = 13, anything else is off for now)
-gpgpu_num_sched_per_core                    2 # Number of warp schedulers per core
-gpgpu_max_insn_issue_per_warp                    1 # Max number of instructions that can be issued per warp in one cycle by scheduler
-gpgpu_simt_core_sim_order                    1 # Select the simulation order of cores in a cluster (0=Fix, 1=Round-Robin)
-gpgpu_pipeline_widths        2,1,1,2,1,1,2 # Pipeline widths ID_OC_SP,ID_OC_SFU,ID_OC_MEM,OC_EX_SP,OC_EX_SFU,OC_EX_MEM,EX_WB
-gpgpu_num_sp_units                     2 # Number of SP units (default=1)
-gpgpu_num_sfu_units                    1 # Number of SF units (default=1)
-gpgpu_num_mem_units                    1 # Number if ldst units (default=1) WARNING: not hooked up to anything
-gpgpu_scheduler                      gto # Scheduler configuration: < lrr | gto | two_level_active > If two_level_active:<num_active_warps>:<inner_prioritization>:<outer_prioritization>For complete list of prioritization values see shader.h enum scheduler_prioritization_typeDefault: gto
-gpgpu_dram_scheduler                    1 # 0 = fifo, 1 = FR-FCFS (defaul)
-gpgpu_dram_partition_queues              8:8:8:8 # i2$:$2d:d2$:$2i
-l2_ideal                               0 # Use a ideal L2 cache that always hit
-gpgpu_cache:dl2     64:128:8,L:B:m:W:L,A:32:4,4:0,32 # unified banked L2 data cache config  {<nsets>:<bsize>:<assoc>,<rep>:<wr>:<alloc>:<wr_alloc>,<mshr>:<N>:<merge>,<mq>}
-gpgpu_cache:dl2_texture_only                    0 # L2 cache used for texture only
-gpgpu_n_mem                            6 # number of memory modules (e.g. memory controllers) in gpu
-gpgpu_n_sub_partition_per_mchannel                    2 # number of memory subpartition in each memory module
-gpgpu_n_mem_per_ctrlr                    2 # number of memory chips per memory controller
-gpgpu_memlatency_stat                   14 # track and display latency statistics 0x2 enables MC, 0x4 enables queue logs
-gpgpu_frfcfs_dram_sched_queue_size                   16 # 0 = unlimited (default); # entries per chip
-gpgpu_dram_return_queue_size                  116 # 0 = unlimited (default); # entries per chip
-gpgpu_dram_buswidth                    4 # default = 4 bytes (8 bytes per cycle at DDR)
-gpgpu_dram_burst_length                    8 # Burst length of each DRAM request (default = 4 data bus cycle)
-dram_data_command_freq_ratio                    4 # Frequency ratio between DRAM data bus and command bus (default = 2 times, i.e. DDR)
-gpgpu_dram_timing_opt nbk=16:CCD=2:RRD=6:RCD=12:RAS=28:RP=12:RC=40: CL=12:WL=4:CDLR=5:WR=12:nbkgrp=4:CCDL=3:RTPL=2 # DRAM timing parameters = {nbk:tCCD:tRRD:tRCD:tRAS:tRP:tRC:CL:WL:tCDLR:tWR:nbkgrp:tCCDL:tRTPL}
-rop_latency                          120 # ROP queue latency (default 85)
-dram_latency                         100 # DRAM latency (default 30)
-gpgpu_mem_addr_mapping dramid@8;00000000.00000000.00000000.00000000.0000RRRR.RRRRRRRR.BBBCCCCB.CCSSSSSS # mapping memory address to dram model {dramid@<start bit>;<memory address map>}
-gpgpu_mem_addr_test                    0 # run sweep test to check address mapping for aliased address
-gpgpu_mem_address_mask                    1 # 0 = old addressing mask, 1 = new addressing mask, 2 = new add. mask + flipped bank sel and chip sel bits
-gpuwattch_xml_file  gpuwattch_gtx480.xml # GPUWattch XML file
-power_simulation_enabled                    1 # Turn on power simulator (1=On, 0=Off)
-power_per_cycle_dump                    0 # Dump detailed power output each cycle
-power_trace_enabled                    0 # produce a file for the power trace (1=On, 0=Off)
-power_trace_zlevel                     6 # Compression level of the power trace output log (0=no comp, 9=highest)
-steady_power_levels_enabled                    0 # produce a file for the steady power levels (1=On, 0=Off)
-steady_state_definition                  8:4 # allowed deviation:number of samples
-gpgpu_max_cycle                        0 # terminates gpu simulation early (0 = no limit)
-gpgpu_max_insn                         0 # terminates gpu simulation early (0 = no limit)
-gpgpu_max_cta                          0 # terminates gpu simulation early (0 = no limit)
-gpgpu_runtime_stat                   500 # display runtime statistics such as dram utilization {<freq>:<flag>}
-liveness_message_freq                    1 # Minimum number of seconds between simulation liveness messages (0 = always print)
-gpgpu_flush_l1_cache                    0 # Flush L1 cache at the end of each kernel call
-gpgpu_flush_l2_cache                    0 # Flush L2 cache at the end of each kernel call
-gpgpu_deadlock_detect                    1 # Stop the simulation at deadlock (1=on (default), 0=off)
-gpgpu_ptx_instruction_classification                    0 # if enabled will classify ptx instruction types per kernel (Max 255 kernels now)
-gpgpu_ptx_sim_mode                     0 # Select between Performance (default) or Functional simulation (1)
-gpgpu_clock_domains 700.0:700.0:700.0:924.0 # Clock Domain Frequencies in MhZ {<Core Clock>:<ICNT Clock>:<L2 Clock>:<DRAM Clock>}
-gpgpu_max_concurrent_kernel                    8 # maximum kernels that can run concurrently on GPU
-gpgpu_cflog_interval                    0 # Interval between each snapshot in control flow logger
-visualizer_enabled                     0 # Turn on visualizer output (1=On, 0=Off)
-visualizer_outputfile                 NULL # Specifies the output log file for visualizer
-visualizer_zlevel                      6 # Compression level of the visualizer output log (0=no comp, 9=highest)
-trace_enabled                          0 # Turn on traces
-trace_components                    none # comma seperated list of traces to enable. Complete list found in trace_streams.tup. Default none
-trace_sampling_core                    0 # The core which is printed using CORE_DPRINTF. Default 0
-trace_sampling_memory_partition                   -1 # The memory partition which is printed using MEMPART_DPRINTF. Default -1 (i.e. all)
-enable_ptx_file_line_stats                    1 # Turn on PTX source line statistic profiling. (1 = On)
-ptx_line_stats_filename gpgpu_inst_stats.txt # Output file for PTX source line statistics.
-save_embedded_ptx                      0 # saves ptx files embedded in binary as <n>.ptx
-keep                                   0 # keep intermediate files created by GPGPU-Sim when interfacing with external programs
-gpgpu_ptx_save_converted_ptxplus                    0 # Saved converted ptxplus to a file
-ptx_opcode_latency_int         4,13,4,5,145 # Opcode latencies for integers <ADD,MAX,MUL,MAD,DIV>Default 1,1,19,25,145
-ptx_opcode_latency_fp          4,13,4,5,39 # Opcode latencies for single precision floating points <ADD,MAX,MUL,MAD,DIV>Default 1,1,1,1,30
-ptx_opcode_latency_dp         8,19,8,8,330 # Opcode latencies for double precision floating points <ADD,MAX,MUL,MAD,DIV>Default 8,8,8,8,335
-ptx_opcode_initiation_int            1,2,2,1,8 # Opcode initiation intervals for integers <ADD,MAX,MUL,MAD,DIV>Default 1,1,4,4,32
-ptx_opcode_initiation_fp            1,2,1,1,4 # Opcode initiation intervals for single precision floating points <ADD,MAX,MUL,MAD,DIV>Default 1,1,1,1,5
-ptx_opcode_initiation_dp         8,16,8,8,130 # Opcode initiation intervals for double precision floating points <ADD,MAX,MUL,MAD,DIV>Default 8,8,8,8,130
DRAM Timing Options:
nbk                                    16 # number of banks
CCD                                     2 # column to column delay
RRD                                     6 # minimal delay between activation of rows in different banks
RCD                                    12 # row to column delay
RAS                                    28 # time needed to activate row
RP                                     12 # time needed to precharge (deactivate) row
RC                                     40 # row cycle time
CDLR                                    5 # switching from write to read (changes tWTR)
WR                                     12 # last data-in to row precharge
CL                                     12 # CAS latency
WL                                      4 # Write latency
nbkgrp                                  4 # number of bank groups
CCDL                                    3 # column to column delay between accesses to different bank groups
RTPL                                    2 # read to precharge delay between accesses to different bank groups
Total number of memory sub partition = 12
addr_dec_mask[CHIP]  = 0000000000000000 	high:64 low:0
addr_dec_mask[BK]    = 000000000000e100 	high:16 low:8
addr_dec_mask[ROW]   = 000000000fff0000 	high:28 low:16
addr_dec_mask[COL]   = 0000000000001eff 	high:13 low:0
addr_dec_mask[BURST] = 000000000000003f 	high:6 low:0
sub_partition_id_mask = 0000000000000100
GPGPU-Sim uArch: clock freqs: 700000000.000000:700000000.000000:700000000.000000:924000000.000000
GPGPU-Sim uArch: clock periods: 0.00000000142857142857:0.00000000142857142857:0.00000000142857142857:0.00000000108225108225
*** Initializing Memory Statistics ***
GPGPU-Sim uArch: interconnect node map (shaderID+MemID to icntID)
GPGPU-Sim uArch: Memory nodes ID start from index: 15
GPGPU-Sim uArch:    0   1   2   3   4
GPGPU-Sim uArch:    5   6   7   8   9
GPGPU-Sim uArch:   10  11  12  13  14
GPGPU-Sim uArch:   15  16  17  18  19
GPGPU-Sim uArch:   20  21  22  23  24
GPGPU-Sim uArch:   25  26
GPGPU-Sim uArch: interconnect node reverse map (icntID to shaderID+MemID)
GPGPU-Sim uArch: Memory nodes start from ID: 15
GPGPU-Sim uArch:    0   1   2   3   4
GPGPU-Sim uArch:    5   6   7   8   9
GPGPU-Sim uArch:   10  11  12  13  14
GPGPU-Sim uArch:   15  16  17  18  19
GPGPU-Sim uArch:   20  21  22  23  24
GPGPU-Sim uArch:   25  26
36bb1eeaa5c1ff7ca0ddea1af00eaab8  /home/scratch/adwait/applications/benchmarks/CUDA/NN/gpgpu_ptx_sim__NN
GPGPU-Sim uArch: performance model initialization complete.
GPGPU-Sim PTX: __cudaRegisterFatBinary, fat_cubin_handle = 1, filename=NN.cu
self exe links to: /home/scratch/adwait/applications/benchmarks/CUDA/NN/gpgpu_ptx_sim__NN
Running md5sum using "md5sum /home/scratch/adwait/applications/benchmarks/CUDA/NN/gpgpu_ptx_sim__NN "
Running cuobjdump using "$CUDA_INSTALL_PATH/bin/cuobjdump -ptx -elf -sass /home/scratch/adwait/applications/benchmarks/CUDA/NN/gpgpu_ptx_sim__NN > _cuobjdump_complete_output_pW1RAu"
Parsing file _cuobjdump_complete_output_pW1RAu
######### cuobjdump parser ########
## Adding new section ELF
Adding arch: sm_20
Adding identifier: NN.cu
## Adding new section PTX
Adding ptx filename: _cuobjdump_1.ptx
Adding arch: sm_20
Adding identifier: NN.cu
Done parsing!!!
GPGPU-Sim PTX: __cudaRegisterFunction _Z18executeFourthLayerPfS_S_ : hostFun 0x0x402a51, fat_cubin_handle = 1
GPGPU-Sim PTX: allocating constant region for "kernelTemplate" from 0x100 to 0x164 (global memory space) 1
GPGPU-Sim PTX: instruction assembly for function '_Z17executeFirstLayerPfS_S_'...   done.
GPGPU-Sim PTX: finding reconvergence points for '_Z17executeFirstLayerPfS_S_'...
GPGPU-Sim PTX: Finding dominators for '_Z17executeFirstLayerPfS_S_'...
GPGPU-Sim PTX: Finding immediate dominators for '_Z17executeFirstLayerPfS_S_'...
GPGPU-Sim PTX: Finding postdominators for '_Z17executeFirstLayerPfS_S_'...
GPGPU-Sim PTX: Finding immediate postdominators for '_Z17executeFirstLayerPfS_S_'...
GPGPU-Sim PTX: pre-decoding instructions for '_Z17executeFirstLayerPfS_S_'...
GPGPU-Sim PTX: reconvergence points for _Z17executeFirstLayerPfS_S_...
GPGPU-Sim PTX:  1 (potential) branch divergence @  PC=0x100 (_1.ptx:100) @%p1 bra $Lt_0_4098;
GPGPU-Sim PTX:    immediate post dominator      @  PC=0x108 (_1.ptx:102) cvt.f64.f32 %fd1, %f1;
GPGPU-Sim PTX:  2 (potential) branch divergence @  PC=0x148 (_1.ptx:110) @!%p2 bra $Lt_0_4866;
GPGPU-Sim PTX:    immediate post dominator      @  PC=0x2a8 (_1.ptx:162) cvt.f64.f32 %fd5, %f29;
GPGPU-Sim PTX:  3 (potential) branch divergence @  PC=0x230 (_1.ptx:142) bra.uni $Lt_0_4610;
GPGPU-Sim PTX:    immediate post dominator      @  PC=0x2a8 (_1.ptx:162) cvt.f64.f32 %fd5, %f29;
GPGPU-Sim PTX: ... end of reconvergence points for _Z17executeFirstLayerPfS_S_
GPGPU-Sim PTX: ... done pre-decoding instructions for '_Z17executeFirstLayerPfS_S_'.
GPGPU-Sim PTX: allocating constant region for "kernelTemplate2" from 0x180 to 0x1e4 (global memory space) 2
GPGPU-Sim PTX: instruction assembly for function '_Z18executeSecondLayerPfS_S_'...   done.
GPGPU-Sim PTX: finding reconvergence points for '_Z18executeSecondLayerPfS_S_'...
GPGPU-Sim PTX: Finding dominators for '_Z18executeSecondLayerPfS_S_'...
GPGPU-Sim PTX: Finding immediate dominators for '_Z18executeSecondLayerPfS_S_'...
GPGPU-Sim PTX: Finding postdominators for '_Z18executeSecondLayerPfS_S_'...
GPGPU-Sim PTX: Finding immediate postdominators for '_Z18executeSecondLayerPfS_S_'...
GPGPU-Sim PTX: pre-decoding instructions for '_Z18executeSecondLayerPfS_S_'...
GPGPU-Sim PTX: reconvergence points for _Z18executeSecondLayerPfS_S_...
GPGPU-Sim PTX:  1 (potential) branch divergence @  PC=0x4a0 (_1.ptx:251) @%p1 bra $Lt_1_5634;
GPGPU-Sim PTX:    immediate post dominator      @  PC=0x4a8 (_1.ptx:253) cvt.f64.f32 %fd1, %f1;
GPGPU-Sim PTX:  2 (potential) branch divergence @  PC=0x4e8 (_1.ptx:261) @!%p2 bra $Lt_1_6402;
GPGPU-Sim PTX:    immediate post dominator      @  PC=0x648 (_1.ptx:313) cvt.f64.f32 %fd5, %f44;
GPGPU-Sim PTX:  3 (potential) branch divergence @  PC=0x5d0 (_1.ptx:293) bra.uni $Lt_1_6146;
GPGPU-Sim PTX:    immediate post dominator      @  PC=0x648 (_1.ptx:313) cvt.f64.f32 %fd5, %f44;
GPGPU-Sim PTX: ... end of reconvergence points for _Z18executeSecondLayerPfS_S_
GPGPU-Sim PTX: ... done pre-decoding instructions for '_Z18executeSecondLayerPfS_S_'.
GPGPU-Sim PTX: instruction assembly for function '_Z17executeThirdLayerPfS_S_'...   done.
GPGPU-Sim PTX: finding reconvergence points for '_Z17executeThirdLayerPfS_S_'...
GPGPU-Sim PTX: Finding dominators for '_Z17executeThirdLayerPfS_S_'...
GPGPU-Sim PTX: Finding immediate dominators for '_Z17executeThirdLayerPfS_S_'...
GPGPU-Sim PTX: Finding postdominators for '_Z17executeThirdLayerPfS_S_'...
GPGPU-Sim PTX: Finding immediate postdominators for '_Z17executeThirdLayerPfS_S_'...
GPGPU-Sim PTX: pre-decoding instructions for '_Z17executeThirdLayerPfS_S_'...
GPGPU-Sim PTX: reconvergence points for _Z17executeThirdLayerPfS_S_...
GPGPU-Sim PTX:  1 (potential) branch divergence @  PC=0x788 (_1.ptx:373) @%p1 bra $Lt_2_4098;
GPGPU-Sim PTX:    immediate post dominator      @  PC=0x790 (_1.ptx:375) cvt.f64.f32 %fd1, %f1;
GPGPU-Sim PTX:  2 (potential) branch divergence @  PC=0x7d0 (_1.ptx:383) @!%p2 bra $Lt_2_4866;
GPGPU-Sim PTX:    immediate post dominator      @  PC=0x930 (_1.ptx:435) cvt.f64.f32 %fd5, %f29;
GPGPU-Sim PTX:  3 (potential) branch divergence @  PC=0x8b8 (_1.ptx:415) bra.uni $Lt_2_4610;
GPGPU-Sim PTX:    immediate post dominator      @  PC=0x930 (_1.ptx:435) cvt.f64.f32 %fd5, %f29;
GPGPU-Sim PTX: ... end of reconvergence points for _Z17executeThirdLayerPfS_S_
GPGPU-Sim PTX: ... done pre-decoding instructions for '_Z17executeThirdLayerPfS_S_'.
GPGPU-Sim PTX: instruction assembly for function '_Z18executeFourthLayerPfS_S_'...   done.
GPGPU-Sim PTX: finding reconvergence points for '_Z18executeFourthLayerPfS_S_'...
GPGPU-Sim PTX: Finding dominators for '_Z18executeFourthLayerPfS_S_'...
GPGPU-Sim PTX: Finding immediate dominators for '_Z18executeFourthLayerPfS_S_'...
GPGPU-Sim PTX: Finding postdominators for '_Z18executeFourthLayerPfS_S_'...
GPGPU-Sim PTX: Finding immediate postdominators for '_Z18executeFourthLayerPfS_S_'...
GPGPU-Sim PTX: pre-decoding instructions for '_Z18executeFourthLayerPfS_S_'...
GPGPU-Sim PTX: reconvergence points for _Z18executeFourthLayerPfS_S_...
GPGPU-Sim PTX:  1 (potential) branch divergence @  PC=0xa50 (_1.ptx:491) @%p1 bra $Lt_3_4098;
GPGPU-Sim PTX:    immediate post dominator      @  PC=0xa58 (_1.ptx:493) cvt.f64.f32 %fd1, %f1;
GPGPU-Sim PTX:  2 (potential) branch divergence @  PC=0xa98 (_1.ptx:501) @!%p2 bra $Lt_3_4866;
GPGPU-Sim PTX:    immediate post dominator      @  PC=0xbf8 (_1.ptx:553) cvt.f64.f32 %fd5, %f29;
GPGPU-Sim PTX:  3 (potential) branch divergence @  PC=0xb80 (_1.ptx:533) bra.uni $Lt_3_4610;
GPGPU-Sim PTX:    immediate post dominator      @  PC=0xbf8 (_1.ptx:553) cvt.f64.f32 %fd5, %f29;
GPGPU-Sim PTX: ... end of reconvergence points for _Z18executeFourthLayerPfS_S_
GPGPU-Sim PTX: ... done pre-decoding instructions for '_Z18executeFourthLayerPfS_S_'.
GPGPU-Sim PTX: finished parsing EMBEDDED .ptx file _1.ptx
Adding _cuobjdump_1.ptx with cubin handle 1
GPGPU-Sim PTX: extracting embedded .ptx to temporary file "_ptx_kjB98m"
Running: cat _ptx_kjB98m | sed 's/.version 1.5/.version 1.4/' | sed 's/, texmode_independent//' | sed 's/\(\.extern \.const\[1\] .b8 \w\+\)\[\]/\1\[1\]/' | sed 's/const\[.\]/const\[0\]/g' > _ptx2_8wkJPf
GPGPU-Sim PTX: generating ptxinfo using "$CUDA_INSTALL_PATH/bin/ptxas --gpu-name=sm_20 -v _ptx2_8wkJPf --output-file  /dev/null 2> _ptx_kjB98minfo"
GPGPU-Sim PTX: Kernel '_Z18executeFourthLayerPfS_S_' : regs=12, lmem=0, smem=0, cmem=288
GPGPU-Sim PTX: Kernel '_Z17executeThirdLayerPfS_S_' : regs=12, lmem=0, smem=0, cmem=288
GPGPU-Sim PTX: Kernel '_Z18executeSecondLayerPfS_S_' : regs=22, lmem=0, smem=0, cmem=288
GPGPU-Sim PTX: Kernel '_Z17executeFirstLayerPfS_S_' : regs=17, lmem=0, smem=0, cmem=288
GPGPU-Sim PTX: removing ptxinfo using "rm -f _ptx_kjB98m _ptx2_8wkJPf _ptx_kjB98minfo"
GPGPU-Sim PTX: loading globals with explicit initializers... 
GPGPU-Sim PTX: finished loading globals (0 bytes total).
GPGPU-Sim PTX: loading constants with explicit initializers...  done.
GPGPU-Sim PTX: __cudaRegisterFunction _Z17executeThirdLayerPfS_S_ : hostFun 0x0x40298f, fat_cubin_handle = 1
GPGPU-Sim PTX: __cudaRegisterFunction _Z18executeSecondLayerPfS_S_ : hostFun 0x0x4028cd, fat_cubin_handle = 1
GPGPU-Sim PTX: __cudaRegisterFunction _Z17executeFirstLayerPfS_S_ : hostFun 0x0x40280b, fat_cubin_handle = 1
GPGPU-Sim PTX: __cudaRegisterVar: hostVar = 0x60a180; deviceAddress = kernelTemplate; deviceName = kernelTemplate
GPGPU-Sim PTX: __cudaRegisterVar: Registering const memory space of 100 bytes
GPGPU-Sim PTX registering constant kernelTemplate (100 bytes) to name mapping
GPGPU-Sim PTX: __cudaRegisterVar: hostVar = 0x60a200; deviceAddress = kernelTemplate2; deviceName = kernelTemplate2
GPGPU-Sim PTX: __cudaRegisterVar: Registering const memory space of 100 bytes
GPGPU-Sim PTX registering constant kernelTemplate2 (100 bytes) to name mapping
magic number = 2051
number of items = 10000
number of rows = 28
number of rows = 28
NUM=28

GPGPU-Sim PTX: cudaLaunch for 0x0x40280b (mode=performance simulation) on stream 0
GPGPU-Sim PTX: pushing kernel '_Z17executeFirstLayerPfS_S_' to stream 0, gridDim= (6,28,1) blockDim = (13,13,1) 
kernel '_Z17executeFirstLayerPfS_S_' transfer to GPU hardware scheduler
GPGPU-Sim uArch: Shader 1 bind to kernel 1 '_Z17executeFirstLayerPfS_S_'
GPGPU-Sim uArch: CTA/core = 8, limited by: threads regs cta_limit
GPGPU-Sim uArch: core:  1, cta: 0 initialized @(1,0)
GPGPU-Sim uArch: Shader 2 bind to kernel 1 '_Z17executeFirstLayerPfS_S_'
GPGPU-Sim uArch: core:  2, cta: 0 initialized @(1,0)
GPGPU-Sim uArch: Shader 3 bind to kernel 1 '_Z17executeFirstLayerPfS_S_'
GPGPU-Sim uArch: core:  3, cta: 0 initialized @(1,0)
GPGPU-Sim uArch: Shader 4 bind to kernel 1 '_Z17executeFirstLayerPfS_S_'
GPGPU-Sim uArch: core:  4, cta: 0 initialized @(1,0)
GPGPU-Sim uArch: Shader 5 bind to kernel 1 '_Z17executeFirstLayerPfS_S_'
GPGPU-Sim uArch: core:  5, cta: 0 initialized @(1,0)
GPGPU-Sim uArch: Shader 6 bind to kernel 1 '_Z17executeFirstLayerPfS_S_'
GPGPU-Sim uArch: core:  6, cta: 0 initialized @(1,0)
GPGPU-Sim uArch: Shader 7 bind to kernel 1 '_Z17executeFirstLayerPfS_S_'
GPGPU-Sim uArch: core:  7, cta: 0 initialized @(1,0)
GPGPU-Sim uArch: Shader 8 bind to kernel 1 '_Z17executeFirstLayerPfS_S_'
GPGPU-Sim uArch: core:  8, cta: 0 initialized @(1,0)
GPGPU-Sim uArch: Shader 9 bind to kernel 1 '_Z17executeFirstLayerPfS_S_'
GPGPU-Sim uArch: core:  9, cta: 0 initialized @(1,0)
GPGPU-Sim uArch: Shader 10 bind to kernel 1 '_Z17executeFirstLayerPfS_S_'
GPGPU-Sim uArch: core: 10, cta: 0 initialized @(1,0)
GPGPU-Sim uArch: Shader 11 bind to kernel 1 '_Z17executeFirstLayerPfS_S_'
GPGPU-Sim uArch: core: 11, cta: 0 initialized @(1,0)
GPGPU-Sim uArch: Shader 12 bind to kernel 1 '_Z17executeFirstLayerPfS_S_'
GPGPU-Sim uArch: core: 12, cta: 0 initialized @(1,0)
GPGPU-Sim uArch: Shader 13 bind to kernel 1 '_Z17executeFirstLayerPfS_S_'
GPGPU-Sim uArch: core: 13, cta: 0 initialized @(1,0)
GPGPU-Sim uArch: Shader 14 bind to kernel 1 '_Z17executeFirstLayerPfS_S_'
GPGPU-Sim uArch: core: 14, cta: 0 initialized @(1,0)
GPGPU-Sim uArch: Shader 0 bind to kernel 1 '_Z17executeFirstLayerPfS_S_'
GPGPU-Sim uArch: core:  0, cta: 0 initialized @(1,0)
GPGPU-Sim uArch: core:  1, cta: 1 initialized @(2,0)
GPGPU-Sim uArch: core:  2, cta: 1 initialized @(2,0)
GPGPU-Sim uArch: core:  3, cta: 1 initialized @(2,0)
GPGPU-Sim uArch: core:  4, cta: 1 initialized @(2,0)
GPGPU-Sim uArch: core:  5, cta: 1 initialized @(2,0)
GPGPU-Sim uArch: core:  6, cta: 1 initialized @(2,0)
GPGPU-Sim uArch: core:  7, cta: 1 initialized @(2,0)
GPGPU-Sim uArch: core:  8, cta: 1 initialized @(2,0)
GPGPU-Sim uArch: core:  9, cta: 1 initialized @(2,0)
GPGPU-Sim uArch: core: 10, cta: 1 initialized @(2,0)
GPGPU-Sim uArch: core: 11, cta: 1 initialized @(2,0)
GPGPU-Sim uArch: core: 12, cta: 1 initialized @(2,0)
GPGPU-Sim uArch: core: 13, cta: 1 initialized @(2,0)
GPGPU-Sim uArch: core: 14, cta: 1 initialized @(2,0)
GPGPU-Sim uArch: core:  0, cta: 1 initialized @(2,0)
GPGPU-Sim uArch: core:  1, cta: 2 initialized @(3,0)
GPGPU-Sim uArch: core:  2, cta: 2 initialized @(3,0)
GPGPU-Sim uArch: core:  3, cta: 2 initialized @(3,0)
GPGPU-Sim uArch: core:  4, cta: 2 initialized @(3,0)
GPGPU-Sim uArch: core:  5, cta: 2 initialized @(3,0)
GPGPU-Sim uArch: core:  6, cta: 2 initialized @(3,0)
GPGPU-Sim uArch: core:  7, cta: 2 initialized @(3,0)
GPGPU-Sim uArch: core:  8, cta: 2 initialized @(3,0)
GPGPU-Sim uArch: core:  9, cta: 2 initialized @(3,0)
GPGPU-Sim uArch: core: 10, cta: 2 initialized @(3,0)
GPGPU-Sim uArch: core: 11, cta: 2 initialized @(3,0)
GPGPU-Sim uArch: core: 12, cta: 2 initialized @(3,0)
GPGPU-Sim uArch: core: 13, cta: 2 initialized @(3,0)
GPGPU-Sim uArch: core: 14, cta: 2 initialized @(3,0)
GPGPU-Sim uArch: core:  0, cta: 2 initialized @(3,0)
GPGPU-Sim uArch: core:  1, cta: 3 initialized @(4,0)
GPGPU-Sim uArch: core:  2, cta: 3 initialized @(4,0)
GPGPU-Sim uArch: core:  3, cta: 3 initialized @(4,0)
GPGPU-Sim uArch: core:  4, cta: 3 initialized @(4,0)
GPGPU-Sim uArch: core:  5, cta: 3 initialized @(4,0)
GPGPU-Sim uArch: core:  6, cta: 3 initialized @(4,0)
GPGPU-Sim uArch: core:  7, cta: 3 initialized @(4,0)
GPGPU-Sim uArch: core:  8, cta: 3 initialized @(4,0)
GPGPU-Sim uArch: core:  9, cta: 3 initialized @(4,0)
GPGPU-Sim uArch: core: 10, cta: 3 initialized @(4,0)
GPGPU-Sim uArch: core: 11, cta: 3 initialized @(4,0)
GPGPU-Sim uArch: core: 12, cta: 3 initialized @(4,0)
GPGPU-Sim uArch: core: 13, cta: 3 initialized @(4,0)
GPGPU-Sim uArch: core: 14, cta: 3 initialized @(4,0)
GPGPU-Sim uArch: core:  0, cta: 3 initialized @(4,0)
GPGPU-Sim uArch: core:  1, cta: 4 initialized @(5,0)
GPGPU-Sim uArch: core:  2, cta: 4 initialized @(5,0)
GPGPU-Sim uArch: core:  3, cta: 4 initialized @(5,0)
GPGPU-Sim uArch: core:  4, cta: 4 initialized @(5,0)
GPGPU-Sim uArch: core:  5, cta: 4 initialized @(5,0)
GPGPU-Sim uArch: core:  6, cta: 4 initialized @(5,0)
GPGPU-Sim uArch: core:  7, cta: 4 initialized @(5,0)
GPGPU-Sim uArch: core:  8, cta: 4 initialized @(5,0)
GPGPU-Sim uArch: core:  9, cta: 4 initialized @(5,0)
GPGPU-Sim uArch: core: 10, cta: 4 initialized @(5,0)
GPGPU-Sim uArch: core: 11, cta: 4 initialized @(5,0)
GPGPU-Sim uArch: core: 12, cta: 4 initialized @(5,0)
GPGPU-Sim uArch: core: 13, cta: 4 initialized @(5,0)
GPGPU-Sim uArch: core: 14, cta: 4 initialized @(5,0)
GPGPU-Sim uArch: core:  0, cta: 4 initialized @(5,0)
GPGPU-Sim uArch: core:  1, cta: 5 initialized @(6,0)
GPGPU-Sim uArch: core:  2, cta: 5 initialized @(6,0)
GPGPU-Sim uArch: core:  3, cta: 5 initialized @(6,0)
GPGPU-Sim uArch: core:  4, cta: 5 initialized @(6,0)
GPGPU-Sim uArch: core:  5, cta: 5 initialized @(6,0)
GPGPU-Sim uArch: core:  6, cta: 5 initialized @(6,0)
GPGPU-Sim uArch: core:  7, cta: 5 initialized @(6,0)
GPGPU-Sim uArch: core:  8, cta: 5 initialized @(6,0)
GPGPU-Sim uArch: core:  9, cta: 5 initialized @(6,0)
GPGPU-Sim uArch: core: 10, cta: 5 initialized @(6,0)
GPGPU-Sim uArch: core: 11, cta: 5 initialized @(6,0)
GPGPU-Sim uArch: core: 12, cta: 5 initialized @(6,0)
GPGPU-Sim uArch: core: 13, cta: 5 initialized @(6,0)
GPGPU-Sim uArch: core: 14, cta: 5 initialized @(6,0)
GPGPU-Sim uArch: core:  0, cta: 5 initialized @(6,0)
GPGPU-Sim uArch: core:  1, cta: 6 initialized @(7,0)
GPGPU-Sim uArch: core:  2, cta: 6 initialized @(7,0)
GPGPU-Sim uArch: core:  3, cta: 6 initialized @(7,0)
GPGPU-Sim uArch: core:  4, cta: 6 initialized @(7,0)
GPGPU-Sim uArch: core:  5, cta: 6 initialized @(7,0)
GPGPU-Sim uArch: core:  6, cta: 6 initialized @(7,0)
GPGPU-Sim uArch: core:  7, cta: 6 initialized @(7,0)
GPGPU-Sim uArch: core:  8, cta: 6 initialized @(7,0)
GPGPU-Sim uArch: core:  9, cta: 6 initialized @(7,0)
GPGPU-Sim uArch: core: 10, cta: 6 initialized @(7,0)
GPGPU-Sim uArch: core: 11, cta: 6 initialized @(7,0)
GPGPU-Sim uArch: core: 12, cta: 6 initialized @(7,0)
GPGPU-Sim uArch: core: 13, cta: 6 initialized @(7,0)
GPGPU-Sim uArch: core: 14, cta: 6 initialized @(7,0)
GPGPU-Sim uArch: core:  0, cta: 6 initialized @(7,0)
GPGPU-Sim uArch: core:  1, cta: 7 initialized @(8,0)
GPGPU-Sim uArch: core:  2, cta: 7 initialized @(8,0)
GPGPU-Sim uArch: core:  3, cta: 7 initialized @(8,0)
GPGPU-Sim uArch: core:  4, cta: 7 initialized @(8,0)
GPGPU-Sim uArch: core:  5, cta: 7 initialized @(8,0)
GPGPU-Sim uArch: core:  6, cta: 7 initialized @(8,0)
GPGPU-Sim uArch: core:  7, cta: 7 initialized @(8,0)
GPGPU-Sim uArch: core:  8, cta: 7 initialized @(8,0)
GPGPU-Sim uArch: core:  9, cta: 7 initialized @(8,0)
GPGPU-Sim uArch: core: 10, cta: 7 initialized @(8,0)
GPGPU-Sim uArch: core: 11, cta: 7 initialized @(8,0)
GPGPU-Sim uArch: core: 12, cta: 7 initialized @(8,0)
GPGPU-Sim uArch: core: 13, cta: 7 initialized @(8,0)
GPGPU-Sim uArch: core: 14, cta: 7 initialized @(8,0)
GPGPU-Sim uArch: core:  0, cta: 7 initialized @(8,0)
GPGPU-Sim uArch: cycles simulated: 500  inst.: 70695 (ipc=141.4) sim_rate=70695 (inst/sec) elapsed = 0:0:00:01 / Tue Apr 16 16:45:34 2019
GPGPU-Sim PTX: 100000 instructions simulated : ctaid=(2,0,0) tid=(0,12,0)
GPGPU-Sim PTX: 200000 instructions simulated : ctaid=(5,7,0) tid=(8,5,0)
GPGPU-Sim PTX: 300000 instructions simulated : ctaid=(3,13,0) tid=(9,12,0)
GPGPU-Sim PTX: 400000 instructions simulated : ctaid=(0,0,0) tid=(9,5,0)
GPGPU-Sim uArch: cycles simulated: 1500  inst.: 489711 (ipc=326.5) sim_rate=244855 (inst/sec) elapsed = 0:0:00:02 / Tue Apr 16 16:45:35 2019
GPGPU-Sim PTX: 500000 instructions simulated : ctaid=(2,0,0) tid=(10,10,0)
GPGPU-Sim uArch: cycles simulated: 3000  inst.: 548985 (ipc=183.0) sim_rate=182995 (inst/sec) elapsed = 0:0:00:03 / Tue Apr 16 16:45:36 2019
GPGPU-Sim PTX: 600000 instructions simulated : ctaid=(5,0,0) tid=(11,0,0)
GPGPU-Sim uArch: cycles simulated: 5000  inst.: 683237 (ipc=136.6) sim_rate=170809 (inst/sec) elapsed = 0:0:00:04 / Tue Apr 16 16:45:37 2019
GPGPU-Sim PTX: 700000 instructions simulated : ctaid=(2,4,0) tid=(3,5,0)
GPGPU-Sim PTX: 800000 instructions simulated : ctaid=(2,1,0) tid=(7,10,0)
GPGPU-Sim uArch: cycles simulated: 7000  inst.: 827870 (ipc=118.3) sim_rate=165574 (inst/sec) elapsed = 0:0:00:05 / Tue Apr 16 16:45:38 2019
GPGPU-Sim PTX: 900000 instructions simulated : ctaid=(2,2,0) tid=(12,11,0)
GPGPU-Sim uArch: cycles simulated: 8500  inst.: 929490 (ipc=109.4) sim_rate=154915 (inst/sec) elapsed = 0:0:00:06 / Tue Apr 16 16:45:39 2019
GPGPU-Sim PTX: 1000000 instructions simulated : ctaid=(2,2,0) tid=(9,0,0)
GPGPU-Sim uArch: cycles simulated: 10500  inst.: 1084721 (ipc=103.3) sim_rate=154960 (inst/sec) elapsed = 0:0:00:07 / Tue Apr 16 16:45:40 2019
GPGPU-Sim PTX: 1100000 instructions simulated : ctaid=(2,3,0) tid=(2,7,0)
GPGPU-Sim uArch: cycles simulated: 12000  inst.: 1194078 (ipc=99.5) sim_rate=149259 (inst/sec) elapsed = 0:0:00:08 / Tue Apr 16 16:45:41 2019
GPGPU-Sim PTX: 1200000 instructions simulated : ctaid=(4,1,0) tid=(11,7,0)
GPGPU-Sim PTX: 1300000 instructions simulated : ctaid=(2,1,0) tid=(7,0,0)
GPGPU-Sim uArch: cycles simulated: 13500  inst.: 1303858 (ipc=96.6) sim_rate=144873 (inst/sec) elapsed = 0:0:00:09 / Tue Apr 16 16:45:42 2019
GPGPU-Sim PTX: 1400000 instructions simulated : ctaid=(5,2,0) tid=(7,4,0)
GPGPU-Sim uArch: cycles simulated: 15500  inst.: 1450707 (ipc=93.6) sim_rate=145070 (inst/sec) elapsed = 0:0:00:10 / Tue Apr 16 16:45:43 2019
GPGPU-Sim PTX: 1500000 instructions simulated : ctaid=(0,1,0) tid=(12,10,0)
GPGPU-Sim uArch: cycles simulated: 17000  inst.: 1556357 (ipc=91.6) sim_rate=141487 (inst/sec) elapsed = 0:0:00:11 / Tue Apr 16 16:45:44 2019
GPGPU-Sim PTX: 1600000 instructions simulated : ctaid=(4,0,0) tid=(8,3,0)
GPGPU-Sim PTX: 1700000 instructions simulated : ctaid=(3,5,0) tid=(2,5,0)
GPGPU-Sim uArch: cycles simulated: 19000  inst.: 1710813 (ipc=90.0) sim_rate=142567 (inst/sec) elapsed = 0:0:00:12 / Tue Apr 16 16:45:45 2019
GPGPU-Sim PTX: 1800000 instructions simulated : ctaid=(1,1,0) tid=(8,1,0)
GPGPU-Sim uArch: cycles simulated: 20500  inst.: 1822447 (ipc=88.9) sim_rate=140188 (inst/sec) elapsed = 0:0:00:13 / Tue Apr 16 16:45:46 2019
GPGPU-Sim PTX: 1900000 instructions simulated : ctaid=(4,2,0) tid=(4,11,0)
GPGPU-Sim uArch: cycles simulated: 22000  inst.: 1941584 (ipc=88.3) sim_rate=138684 (inst/sec) elapsed = 0:0:00:14 / Tue Apr 16 16:45:47 2019
GPGPU-Sim PTX: 2000000 instructions simulated : ctaid=(5,4,0) tid=(10,6,0)
GPGPU-Sim uArch: cycles simulated: 23500  inst.: 2072075 (ipc=88.2) sim_rate=138138 (inst/sec) elapsed = 0:0:00:15 / Tue Apr 16 16:45:48 2019
GPGPU-Sim PTX: 2100000 instructions simulated : ctaid=(3,2,0) tid=(0,5,0)
GPGPU-Sim PTX: 2200000 instructions simulated : ctaid=(1,3,0) tid=(1,5,0)
GPGPU-Sim uArch: cycles simulated: 25000  inst.: 2210397 (ipc=88.4) sim_rate=138149 (inst/sec) elapsed = 0:0:00:16 / Tue Apr 16 16:45:49 2019
GPGPU-Sim PTX: 2300000 instructions simulated : ctaid=(3,8,0) tid=(2,7,0)
GPGPU-Sim uArch: cycles simulated: 27000  inst.: 2360917 (ipc=87.4) sim_rate=138877 (inst/sec) elapsed = 0:0:00:17 / Tue Apr 16 16:45:50 2019
GPGPU-Sim PTX: 2400000 instructions simulated : ctaid=(4,5,0) tid=(5,1,0)
GPGPU-Sim uArch: cycles simulated: 28500  inst.: 2474545 (ipc=86.8) sim_rate=137474 (inst/sec) elapsed = 0:0:00:18 / Tue Apr 16 16:45:51 2019
GPGPU-Sim PTX: 2500000 instructions simulated : ctaid=(5,6,0) tid=(6,6,0)
GPGPU-Sim uArch: cycles simulated: 30000  inst.: 2581543 (ipc=86.1) sim_rate=135870 (inst/sec) elapsed = 0:0:00:19 / Tue Apr 16 16:45:52 2019
GPGPU-Sim PTX: 2600000 instructions simulated : ctaid=(5,0,0) tid=(10,3,0)
GPGPU-Sim PTX: 2700000 instructions simulated : ctaid=(4,11,0) tid=(4,0,0)
GPGPU-Sim uArch: cycles simulated: 31500  inst.: 2703867 (ipc=85.8) sim_rate=135193 (inst/sec) elapsed = 0:0:00:20 / Tue Apr 16 16:45:53 2019
GPGPU-Sim PTX: 2800000 instructions simulated : ctaid=(1,6,0) tid=(5,5,0)
GPGPU-Sim uArch: cycles simulated: 33000  inst.: 2807000 (ipc=85.1) sim_rate=133666 (inst/sec) elapsed = 0:0:00:21 / Tue Apr 16 16:45:54 2019
GPGPU-Sim PTX: 2900000 instructions simulated : ctaid=(2,0,0) tid=(7,9,0)
GPGPU-Sim uArch: cycles simulated: 34500  inst.: 2925606 (ipc=84.8) sim_rate=132982 (inst/sec) elapsed = 0:0:00:22 / Tue Apr 16 16:45:55 2019
GPGPU-Sim uArch: Shader 5 finished CTA #0 (34988,0), 7 CTAs running
GPGPU-Sim uArch: core:  5, cta: 0 initialized @(34989,0)
GPGPU-Sim PTX: 3000000 instructions simulated : ctaid=(0,5,0) tid=(7,11,0)
GPGPU-Sim uArch: cycles simulated: 36000  inst.: 3034970 (ipc=84.3) sim_rate=131955 (inst/sec) elapsed = 0:0:00:23 / Tue Apr 16 16:45:56 2019
GPGPU-Sim PTX: 3100000 instructions simulated : ctaid=(3,14,0) tid=(7,6,0)
GPGPU-Sim uArch: Shader 6 finished CTA #0 (37304,0), 7 CTAs running
GPGPU-Sim uArch: core:  6, cta: 0 initialized @(37305,0)
GPGPU-Sim uArch: cycles simulated: 37500  inst.: 3155233 (ipc=84.1) sim_rate=131468 (inst/sec) elapsed = 0:0:00:24 / Tue Apr 16 16:45:57 2019
GPGPU-Sim PTX: 3200000 instructions simulated : ctaid=(4,11,0) tid=(3,5,0)
GPGPU-Sim uArch: Shader 13 finished CTA #0 (38216,0), 7 CTAs running
GPGPU-Sim uArch: core: 13, cta: 0 initialized @(38217,0)
GPGPU-Sim uArch: Shader 4 finished CTA #0 (38543,0), 7 CTAs running
GPGPU-Sim uArch: core:  4, cta: 0 initialized @(38544,0)
GPGPU-Sim uArch: cycles simulated: 39000  inst.: 3275353 (ipc=84.0) sim_rate=131014 (inst/sec) elapsed = 0:0:00:25 / Tue Apr 16 16:45:58 2019
GPGPU-Sim PTX: 3300000 instructions simulated : ctaid=(5,2,0) tid=(1,8,0)
GPGPU-Sim uArch: Shader 7 finished CTA #0 (39245,0), 7 CTAs running
GPGPU-Sim uArch: core:  7, cta: 0 initialized @(39246,0)
GPGPU-Sim uArch: Shader 14 finished CTA #0 (39834,0), 7 CTAs running
GPGPU-Sim uArch: core: 14, cta: 0 initialized @(39835,0)
GPGPU-Sim uArch: Shader 1 finished CTA #0 (40125,0), 7 CTAs running
GPGPU-Sim uArch: core:  1, cta: 0 initialized @(40126,0)
GPGPU-Sim uArch: Shader 10 finished CTA #0 (40435,0), 7 CTAs running
GPGPU-Sim uArch: core: 10, cta: 0 initialized @(40436,0)
GPGPU-Sim uArch: cycles simulated: 40500  inst.: 3388436 (ipc=83.7) sim_rate=130324 (inst/sec) elapsed = 0:0:00:26 / Tue Apr 16 16:45:59 2019
GPGPU-Sim PTX: 3400000 instructions simulated : ctaid=(5,13,0) tid=(1,2,0)
GPGPU-Sim uArch: Shader 3 finished CTA #0 (41351,0), 7 CTAs running
GPGPU-Sim uArch: core:  3, cta: 0 initialized @(41352,0)
GPGPU-Sim PTX: 3500000 instructions simulated : ctaid=(4,11,0) tid=(8,11,0)
GPGPU-Sim uArch: Shader 12 finished CTA #0 (41930,0), 7 CTAs running
GPGPU-Sim uArch: core: 12, cta: 0 initialized @(41931,0)
GPGPU-Sim uArch: cycles simulated: 42000  inst.: 3500203 (ipc=83.3) sim_rate=129637 (inst/sec) elapsed = 0:0:00:27 / Tue Apr 16 16:46:00 2019
GPGPU-Sim PTX: 3600000 instructions simulated : ctaid=(2,6,0) tid=(3,12,0)
GPGPU-Sim uArch: cycles simulated: 43500  inst.: 3604008 (ipc=82.9) sim_rate=128714 (inst/sec) elapsed = 0:0:00:28 / Tue Apr 16 16:46:01 2019
GPGPU-Sim uArch: Shader 0 finished CTA #0 (43504,0), 7 CTAs running
GPGPU-Sim uArch: core:  0, cta: 0 initialized @(43505,0)
GPGPU-Sim uArch: Shader 9 finished CTA #0 (44107,0), 7 CTAs running
GPGPU-Sim uArch: core:  9, cta: 0 initialized @(44108,0)
GPGPU-Sim uArch: Shader 8 finished CTA #0 (44355,0), 7 CTAs running
GPGPU-Sim uArch: core:  8, cta: 0 initialized @(44356,0)
GPGPU-Sim uArch: Shader 2 finished CTA #0 (44409,0), 7 CTAs running
GPGPU-Sim uArch: core:  2, cta: 0 initialized @(44410,0)
GPGPU-Sim PTX: 3700000 instructions simulated : ctaid=(5,4,0) tid=(8,2,0)
GPGPU-Sim uArch: cycles simulated: 45000  inst.: 3712191 (ipc=82.5) sim_rate=128006 (inst/sec) elapsed = 0:0:00:29 / Tue Apr 16 16:46:02 2019
GPGPU-Sim PTX: 3800000 instructions simulated : ctaid=(4,8,0) tid=(8,1,0)
GPGPU-Sim uArch: cycles simulated: 46500  inst.: 3821479 (ipc=82.2) sim_rate=127382 (inst/sec) elapsed = 0:0:00:30 / Tue Apr 16 16:46:03 2019
GPGPU-Sim uArch: Shader 11 finished CTA #0 (46557,0), 7 CTAs running
GPGPU-Sim uArch: core: 11, cta: 0 initialized @(46558,0)
GPGPU-Sim PTX: 3900000 instructions simulated : ctaid=(2,14,0) tid=(3,0,0)
GPGPU-Sim uArch: cycles simulated: 48500  inst.: 3959342 (ipc=81.6) sim_rate=127720 (inst/sec) elapsed = 0:0:00:31 / Tue Apr 16 16:46:04 2019
GPGPU-Sim PTX: 4000000 instructions simulated : ctaid=(1,14,0) tid=(7,0,0)
GPGPU-Sim uArch: cycles simulated: 50000  inst.: 4064765 (ipc=81.3) sim_rate=127023 (inst/sec) elapsed = 0:0:00:32 / Tue Apr 16 16:46:05 2019
GPGPU-Sim PTX: 4100000 instructions simulated : ctaid=(5,4,0) tid=(3,3,0)
GPGPU-Sim uArch: cycles simulated: 51500  inst.: 4165316 (ipc=80.9) sim_rate=126221 (inst/sec) elapsed = 0:0:00:33 / Tue Apr 16 16:46:06 2019
GPGPU-Sim PTX: 4200000 instructions simulated : ctaid=(1,12,0) tid=(8,0,0)
GPGPU-Sim uArch: cycles simulated: 53000  inst.: 4272475 (ipc=80.6) sim_rate=125661 (inst/sec) elapsed = 0:0:00:34 / Tue Apr 16 16:46:07 2019
GPGPU-Sim PTX: 4300000 instructions simulated : ctaid=(5,8,0) tid=(9,10,0)
GPGPU-Sim PTX: 4400000 instructions simulated : ctaid=(1,19,0) tid=(4,2,0)
GPGPU-Sim uArch: cycles simulated: 55000  inst.: 4420076 (ipc=80.4) sim_rate=126287 (inst/sec) elapsed = 0:0:00:35 / Tue Apr 16 16:46:08 2019
GPGPU-Sim uArch: Shader 5 finished CTA #1 (55088,0), 7 CTAs running
GPGPU-Sim uArch: core:  5, cta: 1 initialized @(55089,0)
GPGPU-Sim PTX: 4500000 instructions simulated : ctaid=(0,16,0) tid=(12,1,0)
GPGPU-Sim uArch: cycles simulated: 56500  inst.: 4531437 (ipc=80.2) sim_rate=125873 (inst/sec) elapsed = 0:0:00:36 / Tue Apr 16 16:46:09 2019
GPGPU-Sim PTX: 4600000 instructions simulated : ctaid=(5,14,0) tid=(0,2,0)
GPGPU-Sim uArch: Shader 6 finished CTA #1 (58297,0), 7 CTAs running
GPGPU-Sim uArch: core:  6, cta: 1 initialized @(58298,0)
GPGPU-Sim uArch: Shader 3 finished CTA #1 (58331,0), 7 CTAs running
GPGPU-Sim uArch: core:  3, cta: 1 initialized @(58332,0)
GPGPU-Sim uArch: cycles simulated: 58500  inst.: 4671229 (ipc=79.9) sim_rate=126249 (inst/sec) elapsed = 0:0:00:37 / Tue Apr 16 16:46:10 2019
GPGPU-Sim PTX: 4700000 instructions simulated : ctaid=(5,19,0) tid=(9,6,0)
GPGPU-Sim uArch: Shader 2 finished CTA #1 (58867,0), 7 CTAs running
GPGPU-Sim uArch: core:  2, cta: 1 initialized @(58868,0)
GPGPU-Sim PTX: 4800000 instructions simulated : ctaid=(4,12,0) tid=(2,0,0)
GPGPU-Sim uArch: cycles simulated: 60000  inst.: 4787161 (ipc=79.8) sim_rate=125977 (inst/sec) elapsed = 0:0:00:38 / Tue Apr 16 16:46:11 2019
GPGPU-Sim PTX: 4900000 instructions simulated : ctaid=(4,12,0) tid=(12,0,0)
GPGPU-Sim uArch: cycles simulated: 61500  inst.: 4886672 (ipc=79.5) sim_rate=125299 (inst/sec) elapsed = 0:0:00:39 / Tue Apr 16 16:46:12 2019
GPGPU-Sim uArch: Shader 4 finished CTA #1 (61528,0), 7 CTAs running
GPGPU-Sim uArch: core:  4, cta: 1 initialized @(61529,0)
GPGPU-Sim uArch: Shader 1 finished CTA #1 (62251,0), 7 CTAs running
GPGPU-Sim uArch: core:  1, cta: 1 initialized @(62252,0)
GPGPU-Sim PTX: 5000000 instructions simulated : ctaid=(1,11,0) tid=(1,5,0)
GPGPU-Sim uArch: cycles simulated: 63000  inst.: 5000827 (ipc=79.4) sim_rate=125020 (inst/sec) elapsed = 0:0:00:40 / Tue Apr 16 16:46:13 2019
GPGPU-Sim uArch: Shader 14 finished CTA #1 (63063,0), 7 CTAs running
GPGPU-Sim uArch: core: 14, cta: 1 initialized @(63064,0)
GPGPU-Sim PTX: 5100000 instructions simulated : ctaid=(3,16,0) tid=(2,7,0)
GPGPU-Sim uArch: Shader 12 finished CTA #1 (64388,0), 7 CTAs running
GPGPU-Sim uArch: core: 12, cta: 1 initialized @(64389,0)
GPGPU-Sim uArch: cycles simulated: 64500  inst.: 5116093 (ipc=79.3) sim_rate=124782 (inst/sec) elapsed = 0:0:00:41 / Tue Apr 16 16:46:14 2019
GPGPU-Sim uArch: Shader 13 finished CTA #1 (64926,0), 7 CTAs running
GPGPU-Sim uArch: core: 13, cta: 1 initialized @(64927,0)
GPGPU-Sim PTX: 5200000 instructions simulated : ctaid=(4,12,0) tid=(2,12,0)
GPGPU-Sim uArch: cycles simulated: 66000  inst.: 5221242 (ipc=79.1) sim_rate=124315 (inst/sec) elapsed = 0:0:00:42 / Tue Apr 16 16:46:15 2019
GPGPU-Sim uArch: Shader 8 finished CTA #1 (66498,0), 7 CTAs running
GPGPU-Sim uArch: core:  8, cta: 1 initialized @(66499,0)
GPGPU-Sim PTX: 5300000 instructions simulated : ctaid=(1,8,0) tid=(6,3,0)
GPGPU-Sim uArch: cycles simulated: 68000  inst.: 5361726 (ipc=78.8) sim_rate=124691 (inst/sec) elapsed = 0:0:00:43 / Tue Apr 16 16:46:16 2019
GPGPU-Sim PTX: 5400000 instructions simulated : ctaid=(3,5,0) tid=(11,7,0)
GPGPU-Sim PTX: 5500000 instructions simulated : ctaid=(0,5,0) tid=(11,3,0)
GPGPU-Sim uArch: cycles simulated: 69500  inst.: 5483041 (ipc=78.9) sim_rate=124614 (inst/sec) elapsed = 0:0:00:44 / Tue Apr 16 16:46:17 2019
GPGPU-Sim uArch: Shader 0 finished CTA #1 (69563,0), 7 CTAs running
GPGPU-Sim uArch: core:  0, cta: 1 initialized @(69564,0)
GPGPU-Sim PTX: 5600000 instructions simulated : ctaid=(2,16,0) tid=(5,2,0)
GPGPU-Sim uArch: cycles simulated: 71000  inst.: 5600513 (ipc=78.9) sim_rate=124455 (inst/sec) elapsed = 0:0:00:45 / Tue Apr 16 16:46:18 2019
GPGPU-Sim uArch: Shader 10 finished CTA #1 (71739,0), 7 CTAs running
GPGPU-Sim uArch: core: 10, cta: 1 initialized @(71740,0)
GPGPU-Sim uArch: Shader 7 finished CTA #1 (72081,0), 7 CTAs running
GPGPU-Sim uArch: core:  7, cta: 1 initialized @(72082,0)
GPGPU-Sim PTX: 5700000 instructions simulated : ctaid=(4,21,0) tid=(9,1,0)
GPGPU-Sim uArch: cycles simulated: 72500  inst.: 5709325 (ipc=78.7) sim_rate=124115 (inst/sec) elapsed = 0:0:00:46 / Tue Apr 16 16:46:19 2019
GPGPU-Sim uArch: Shader 11 finished CTA #1 (73063,0), 7 CTAs running
GPGPU-Sim uArch: core: 11, cta: 1 initialized @(73064,0)
GPGPU-Sim PTX: 5800000 instructions simulated : ctaid=(0,20,0) tid=(11,5,0)
GPGPU-Sim uArch: cycles simulated: 74500  inst.: 5864593 (ipc=78.7) sim_rate=124778 (inst/sec) elapsed = 0:0:00:47 / Tue Apr 16 16:46:20 2019
GPGPU-Sim PTX: 5900000 instructions simulated : ctaid=(4,16,0) tid=(2,2,0)
GPGPU-Sim uArch: Shader 9 finished CTA #1 (75268,0), 7 CTAs running
GPGPU-Sim uArch: core:  9, cta: 1 initialized @(75269,0)
GPGPU-Sim PTX: 6000000 instructions simulated : ctaid=(3,19,0) tid=(6,11,0)
GPGPU-Sim uArch: cycles simulated: 76000  inst.: 5988417 (ipc=78.8) sim_rate=124758 (inst/sec) elapsed = 0:0:00:48 / Tue Apr 16 16:46:21 2019
GPGPU-Sim PTX: 6100000 instructions simulated : ctaid=(1,19,0) tid=(9,11,0)
GPGPU-Sim uArch: cycles simulated: 77500  inst.: 6102235 (ipc=78.7) sim_rate=124535 (inst/sec) elapsed = 0:0:00:49 / Tue Apr 16 16:46:22 2019
GPGPU-Sim uArch: Shader 4 finished CTA #2 (77896,0), 7 CTAs running
GPGPU-Sim uArch: core:  4, cta: 2 initialized @(77897,0)
GPGPU-Sim PTX: 6200000 instructions simulated : ctaid=(1,18,0) tid=(3,0,0)
GPGPU-Sim uArch: cycles simulated: 79500  inst.: 6253293 (ipc=78.7) sim_rate=125065 (inst/sec) elapsed = 0:0:00:50 / Tue Apr 16 16:46:23 2019
GPGPU-Sim PTX: 6300000 instructions simulated : ctaid=(4,17,0) tid=(4,0,0)
GPGPU-Sim uArch: Shader 1 finished CTA #2 (79886,0), 7 CTAs running
GPGPU-Sim uArch: core:  1, cta: 2 initialized @(79887,0)
GPGPU-Sim uArch: cycles simulated: 81000  inst.: 6367234 (ipc=78.6) sim_rate=124847 (inst/sec) elapsed = 0:0:00:51 / Tue Apr 16 16:46:24 2019
GPGPU-Sim PTX: 6400000 instructions simulated : ctaid=(1,19,0) tid=(2,0,0)
GPGPU-Sim uArch: cycles simulated: 82500  inst.: 6474959 (ipc=78.5) sim_rate=124518 (inst/sec) elapsed = 0:0:00:52 / Tue Apr 16 16:46:25 2019
GPGPU-Sim PTX: 6500000 instructions simulated : ctaid=(5,20,0) tid=(6,10,0)
GPGPU-Sim uArch: Shader 5 finished CTA #2 (83102,0), 7 CTAs running
GPGPU-Sim uArch: core:  5, cta: 2 initialized @(83103,0)
GPGPU-Sim uArch: Shader 3 finished CTA #2 (83670,0), 7 CTAs running
GPGPU-Sim uArch: core:  3, cta: 2 initialized @(83671,0)
GPGPU-Sim PTX: 6600000 instructions simulated : ctaid=(4,12,0) tid=(0,9,0)
GPGPU-Sim uArch: cycles simulated: 84000  inst.: 6590628 (ipc=78.5) sim_rate=124351 (inst/sec) elapsed = 0:0:00:53 / Tue Apr 16 16:46:26 2019
GPGPU-Sim uArch: Shader 2 finished CTA #2 (84767,0), 7 CTAs running
GPGPU-Sim uArch: core:  2, cta: 2 initialized @(84768,0)
GPGPU-Sim PTX: 6700000 instructions simulated : ctaid=(0,18,0) tid=(4,10,0)
GPGPU-Sim uArch: cycles simulated: 86000  inst.: 6743777 (ipc=78.4) sim_rate=124884 (inst/sec) elapsed = 0:0:00:54 / Tue Apr 16 16:46:27 2019
GPGPU-Sim PTX: 6800000 instructions simulated : ctaid=(4,6,0) tid=(1,9,0)
GPGPU-Sim uArch: Shader 13 finished CTA #2 (86779,0), 7 CTAs running
GPGPU-Sim uArch: core: 13, cta: 2 initialized @(86780,0)
GPGPU-Sim uArch: cycles simulated: 87500  inst.: 6853499 (ipc=78.3) sim_rate=124609 (inst/sec) elapsed = 0:0:00:55 / Tue Apr 16 16:46:28 2019
GPGPU-Sim uArch: Shader 8 finished CTA #2 (87758,0), 7 CTAs running
GPGPU-Sim uArch: core:  8, cta: 2 initialized @(87759,0)
GPGPU-Sim PTX: 6900000 instructions simulated : ctaid=(5,23,0) tid=(7,6,0)
GPGPU-Sim uArch: Shader 6 finished CTA #2 (88677,0), 7 CTAs running
GPGPU-Sim uArch: core:  6, cta: 2 initialized @(88678,0)
GPGPU-Sim uArch: cycles simulated: 89000  inst.: 6962059 (ipc=78.2) sim_rate=124322 (inst/sec) elapsed = 0:0:00:56 / Tue Apr 16 16:46:29 2019
GPGPU-Sim PTX: 7000000 instructions simulated : ctaid=(3,22,0) tid=(5,6,0)
GPGPU-Sim uArch: Shader 0 finished CTA #2 (89739,0), 7 CTAs running
GPGPU-Sim uArch: core:  0, cta: 2 initialized @(89740,0)
GPGPU-Sim uArch: cycles simulated: 90500  inst.: 7065865 (ipc=78.1) sim_rate=123962 (inst/sec) elapsed = 0:0:00:57 / Tue Apr 16 16:46:30 2019
GPGPU-Sim PTX: 7100000 instructions simulated : ctaid=(5,18,0) tid=(4,0,0)
GPGPU-Sim uArch: Shader 10 finished CTA #2 (91390,0), 7 CTAs running
GPGPU-Sim uArch: core: 10, cta: 2 initialized @(91391,0)
GPGPU-Sim uArch: Shader 12 finished CTA #2 (91444,0), 7 CTAs running
GPGPU-Sim uArch: core: 12, cta: 2 initialized @(91445,0)
GPGPU-Sim PTX: 7200000 instructions simulated : ctaid=(3,9,0) tid=(7,12,0)
GPGPU-Sim uArch: cycles simulated: 92000  inst.: 7176875 (ipc=78.0) sim_rate=123739 (inst/sec) elapsed = 0:0:00:58 / Tue Apr 16 16:46:31 2019
GPGPU-Sim PTX: 7300000 instructions simulated : ctaid=(1,9,0) tid=(12,8,0)
GPGPU-Sim uArch: cycles simulated: 94000  inst.: 7326305 (ipc=77.9) sim_rate=124174 (inst/sec) elapsed = 0:0:00:59 / Tue Apr 16 16:46:32 2019
GPGPU-Sim uArch: Shader 14 finished CTA #2 (94376,0), 7 CTAs running
GPGPU-Sim uArch: core: 14, cta: 2 initialized @(94377,0)
GPGPU-Sim PTX: 7400000 instructions simulated : ctaid=(4,23,0) tid=(9,5,0)
GPGPU-Sim uArch: Shader 11 finished CTA #2 (94809,0), 7 CTAs running
GPGPU-Sim uArch: core: 11, cta: 2 initialized @(94810,0)
GPGPU-Sim uArch: Shader 9 finished CTA #2 (94895,0), 7 CTAs running
GPGPU-Sim uArch: core:  9, cta: 2 initialized @(94896,0)
GPGPU-Sim uArch: cycles simulated: 95500  inst.: 7441824 (ipc=77.9) sim_rate=124030 (inst/sec) elapsed = 0:0:01:00 / Tue Apr 16 16:46:33 2019
GPGPU-Sim PTX: 7500000 instructions simulated : ctaid=(0,23,0) tid=(4,5,0)
GPGPU-Sim uArch: cycles simulated: 97000  inst.: 7557013 (ipc=77.9) sim_rate=123885 (inst/sec) elapsed = 0:0:01:01 / Tue Apr 16 16:46:34 2019
GPGPU-Sim PTX: 7600000 instructions simulated : ctaid=(2,8,0) tid=(0,9,0)
GPGPU-Sim PTX: 7700000 instructions simulated : ctaid=(4,9,0) tid=(3,3,0)
GPGPU-Sim uArch: Shader 7 finished CTA #2 (98987,0), 7 CTAs running
GPGPU-Sim uArch: core:  7, cta: 2 initialized @(98988,0)
GPGPU-Sim uArch: cycles simulated: 99000  inst.: 7693536 (ipc=77.7) sim_rate=124089 (inst/sec) elapsed = 0:0:01:02 / Tue Apr 16 16:46:35 2019
GPGPU-Sim PTX: 7800000 instructions simulated : ctaid=(3,25,0) tid=(0,5,0)
GPGPU-Sim uArch: cycles simulated: 100500  inst.: 7797375 (ipc=77.6) sim_rate=123767 (inst/sec) elapsed = 0:0:01:03 / Tue Apr 16 16:46:36 2019
GPGPU-Sim PTX: 7900000 instructions simulated : ctaid=(0,24,0) tid=(6,5,0)
GPGPU-Sim uArch: Shader 4 finished CTA #3 (102352,0), 7 CTAs running
GPGPU-Sim uArch: core:  4, cta: 3 initialized @(102353,0)
GPGPU-Sim uArch: cycles simulated: 102500  inst.: 7947996 (ipc=77.5) sim_rate=124187 (inst/sec) elapsed = 0:0:01:04 / Tue Apr 16 16:46:37 2019
GPGPU-Sim uArch: Shader 3 finished CTA #3 (102560,0), 7 CTAs running
GPGPU-Sim uArch: core:  3, cta: 3 initialized @(102561,0)
GPGPU-Sim PTX: 8000000 instructions simulated : ctaid=(3,9,0) tid=(1,9,0)
GPGPU-Sim uArch: Shader 2 finished CTA #3 (103296,0), 7 CTAs running
GPGPU-Sim uArch: core:  2, cta: 3 initialized @(103297,0)
GPGPU-Sim uArch: Shader 6 finished CTA #3 (103615,0), 7 CTAs running
GPGPU-Sim uArch: cycles simulated: 104000  inst.: 8060926 (ipc=77.5) sim_rate=124014 (inst/sec) elapsed = 0:0:01:05 / Tue Apr 16 16:46:38 2019
GPGPU-Sim PTX: 8100000 instructions simulated : ctaid=(0,27,0) tid=(1,2,0)
GPGPU-Sim uArch: Shader 5 finished CTA #3 (104276,0), 7 CTAs running
GPGPU-Sim PTX: 8200000 instructions simulated : ctaid=(1,17,0) tid=(7,4,0)
GPGPU-Sim uArch: cycles simulated: 106000  inst.: 8213798 (ipc=77.5) sim_rate=124451 (inst/sec) elapsed = 0:0:01:06 / Tue Apr 16 16:46:39 2019
GPGPU-Sim uArch: Shader 1 finished CTA #3 (106578,0), 7 CTAs running
GPGPU-Sim PTX: 8300000 instructions simulated : ctaid=(0,27,0) tid=(6,1,0)
GPGPU-Sim uArch: cycles simulated: 107500  inst.: 8325244 (ipc=77.4) sim_rate=124257 (inst/sec) elapsed = 0:0:01:07 / Tue Apr 16 16:46:40 2019
GPGPU-Sim PTX: 8400000 instructions simulated : ctaid=(1,24,0) tid=(1,12,0)
GPGPU-Sim PTX: 8500000 instructions simulated : ctaid=(3,10,0) tid=(6,2,0)
GPGPU-Sim uArch: cycles simulated: 109500  inst.: 8473258 (ipc=77.4) sim_rate=124606 (inst/sec) elapsed = 0:0:01:08 / Tue Apr 16 16:46:41 2019
GPGPU-Sim uArch: Shader 8 finished CTA #3 (109695,0), 7 CTAs running
GPGPU-Sim PTX: 8600000 instructions simulated : ctaid=(2,17,0) tid=(5,12,0)
GPGPU-Sim uArch: Shader 13 finished CTA #3 (111237,0), 7 CTAs running
GPGPU-Sim uArch: cycles simulated: 111500  inst.: 8638859 (ipc=77.5) sim_rate=125200 (inst/sec) elapsed = 0:0:01:09 / Tue Apr 16 16:46:42 2019
GPGPU-Sim uArch: Shader 14 finished CTA #3 (111617,0), 7 CTAs running
GPGPU-Sim uArch: Shader 0 finished CTA #3 (111698,0), 7 CTAs running
GPGPU-Sim uArch: Shader 10 finished CTA #3 (111819,0), 7 CTAs running
GPGPU-Sim PTX: 8700000 instructions simulated : ctaid=(5,24,0) tid=(5,2,0)
GPGPU-Sim uArch: Shader 12 finished CTA #3 (112084,0), 7 CTAs running
GPGPU-Sim uArch: Shader 11 finished CTA #3 (112252,0), 7 CTAs running
GPGPU-Sim PTX: 8800000 instructions simulated : ctaid=(4,26,0) tid=(6,11,0)
GPGPU-Sim uArch: cycles simulated: 113500  inst.: 8781876 (ipc=77.4) sim_rate=125455 (inst/sec) elapsed = 0:0:01:10 / Tue Apr 16 16:46:43 2019
GPGPU-Sim PTX: 8900000 instructions simulated : ctaid=(5,12,0) tid=(6,8,0)
GPGPU-Sim uArch: cycles simulated: 115500  inst.: 8921749 (ipc=77.2) sim_rate=125658 (inst/sec) elapsed = 0:0:01:11 / Tue Apr 16 16:46:44 2019
GPGPU-Sim PTX: 9000000 instructions simulated : ctaid=(2,26,0) tid=(3,0,0)
GPGPU-Sim uArch: Shader 9 finished CTA #3 (116344,0), 7 CTAs running
GPGPU-Sim PTX: 9100000 instructions simulated : ctaid=(3,15,0) tid=(3,3,0)
GPGPU-Sim uArch: Shader 5 finished CTA #4 (117391,0), 6 CTAs running
GPGPU-Sim uArch: cycles simulated: 117500  inst.: 9084337 (ipc=77.3) sim_rate=126171 (inst/sec) elapsed = 0:0:01:12 / Tue Apr 16 16:46:45 2019
GPGPU-Sim uArch: Shader 2 finished CTA #4 (117746,0), 7 CTAs running
GPGPU-Sim uArch: Shader 1 finished CTA #4 (118303,0), 6 CTAs running
GPGPU-Sim PTX: 9200000 instructions simulated : ctaid=(4,19,0) tid=(9,12,0)
GPGPU-Sim uArch: Shader 7 finished CTA #3 (118974,0), 7 CTAs running
GPGPU-Sim uArch: cycles simulated: 119500  inst.: 9242591 (ipc=77.3) sim_rate=126610 (inst/sec) elapsed = 0:0:01:13 / Tue Apr 16 16:46:46 2019
GPGPU-Sim PTX: 9300000 instructions simulated : ctaid=(3,27,0) tid=(8,10,0)
GPGPU-Sim uArch: Shader 3 finished CTA #4 (120397,0), 7 CTAs running
GPGPU-Sim PTX: 9400000 instructions simulated : ctaid=(5,24,0) tid=(5,11,0)
GPGPU-Sim uArch: cycles simulated: 121000  inst.: 9372770 (ipc=77.5) sim_rate=126659 (inst/sec) elapsed = 0:0:01:14 / Tue Apr 16 16:46:47 2019
GPGPU-Sim uArch: Shader 6 finished CTA #4 (121576,0), 6 CTAs running
GPGPU-Sim uArch: Shader 4 finished CTA #4 (122060,0), 7 CTAs running
GPGPU-Sim PTX: 9500000 instructions simulated : ctaid=(5,19,0) tid=(0,8,0)
GPGPU-Sim uArch: Shader 10 finished CTA #4 (122474,0), 6 CTAs running
GPGPU-Sim uArch: cycles simulated: 123000  inst.: 9536157 (ipc=77.5) sim_rate=127148 (inst/sec) elapsed = 0:0:01:15 / Tue Apr 16 16:46:48 2019
GPGPU-Sim uArch: Shader 1 finished CTA #5 (123206,0), 5 CTAs running
GPGPU-Sim PTX: 9600000 instructions simulated : ctaid=(0,17,0) tid=(10,9,0)
GPGPU-Sim uArch: Shader 11 finished CTA #4 (123468,0), 6 CTAs running
GPGPU-Sim uArch: Shader 5 finished CTA #5 (124008,0), 5 CTAs running
GPGPU-Sim uArch: Shader 0 finished CTA #4 (124220,0), 6 CTAs running
GPGPU-Sim PTX: 9700000 instructions simulated : ctaid=(2,25,0) tid=(10,4,0)
GPGPU-Sim uArch: cycles simulated: 125000  inst.: 9724322 (ipc=77.8) sim_rate=127951 (inst/sec) elapsed = 0:0:01:16 / Tue Apr 16 16:46:49 2019
GPGPU-Sim uArch: Shader 12 finished CTA #4 (125076,0), 6 CTAs running
GPGPU-Sim uArch: Shader 6 finished CTA #5 (125444,0), 5 CTAs running
GPGPU-Sim PTX: 9800000 instructions simulated : ctaid=(3,14,0) tid=(8,2,0)
GPGPU-Sim uArch: Shader 3 finished CTA #5 (126512,0), 6 CTAs running
GPGPU-Sim PTX: 9900000 instructions simulated : ctaid=(4,13,0) tid=(0,8,0)
GPGPU-Sim uArch: Shader 8 finished CTA #4 (126675,0), 6 CTAs running
GPGPU-Sim uArch: Shader 13 finished CTA #4 (126840,0), 6 CTAs running
GPGPU-Sim uArch: Shader 14 finished CTA #4 (126888,0), 6 CTAs running
GPGPU-Sim uArch: cycles simulated: 127000  inst.: 9911843 (ipc=78.0) sim_rate=128725 (inst/sec) elapsed = 0:0:01:17 / Tue Apr 16 16:46:50 2019
GPGPU-Sim uArch: Shader 11 finished CTA #5 (127023,0), 5 CTAs running
GPGPU-Sim uArch: Shader 2 finished CTA #5 (127163,0), 6 CTAs running
GPGPU-Sim PTX: 10000000 instructions simulated : ctaid=(5,17,0) tid=(1,8,0)
GPGPU-Sim uArch: Shader 9 finished CTA #4 (128114,0), 6 CTAs running
GPGPU-Sim uArch: Shader 10 finished CTA #5 (128368,0), 5 CTAs running
GPGPU-Sim uArch: Shader 5 finished CTA #6 (128664,0), 4 CTAs running
GPGPU-Sim PTX: 10100000 instructions simulated : ctaid=(2,22,0) tid=(0,4,0)
GPGPU-Sim uArch: cycles simulated: 129000  inst.: 10084982 (ipc=78.2) sim_rate=129294 (inst/sec) elapsed = 0:0:01:18 / Tue Apr 16 16:46:51 2019
GPGPU-Sim uArch: Shader 7 finished CTA #4 (129206,0), 6 CTAs running
GPGPU-Sim uArch: Shader 4 finished CTA #5 (129781,0), 6 CTAs running
GPGPU-Sim uArch: Shader 1 finished CTA #6 (129928,0), 4 CTAs running
GPGPU-Sim PTX: 10200000 instructions simulated : ctaid=(0,17,0) tid=(3,8,0)
GPGPU-Sim uArch: Shader 0 finished CTA #5 (130495,0), 5 CTAs running
GPGPU-Sim uArch: cycles simulated: 131000  inst.: 10259368 (ipc=78.3) sim_rate=129865 (inst/sec) elapsed = 0:0:01:19 / Tue Apr 16 16:46:52 2019
GPGPU-Sim PTX: 10300000 instructions simulated : ctaid=(5,19,0) tid=(8,12,0)
GPGPU-Sim uArch: Shader 11 finished CTA #6 (131233,0), 4 CTAs running
GPGPU-Sim uArch: Shader 8 finished CTA #5 (131666,0), 5 CTAs running
GPGPU-Sim uArch: Shader 12 finished CTA #5 (131775,0), 5 CTAs running
GPGPU-Sim uArch: Shader 5 finished CTA #7 (131925,0), 3 CTAs running
GPGPU-Sim uArch: Shader 3 finished CTA #6 (132133,0), 5 CTAs running
GPGPU-Sim PTX: 10400000 instructions simulated : ctaid=(1,22,0) tid=(4,8,0)
GPGPU-Sim uArch: Shader 14 finished CTA #5 (132723,0), 5 CTAs running
GPGPU-Sim uArch: Shader 9 finished CTA #5 (132767,0), 5 CTAs running
GPGPU-Sim uArch: Shader 6 finished CTA #6 (132824,0), 4 CTAs running
GPGPU-Sim uArch: Shader 13 finished CTA #5 (132947,0), 5 CTAs running
GPGPU-Sim uArch: Shader 10 finished CTA #6 (133082,0), 4 CTAs running
GPGPU-Sim PTX: 10500000 instructions simulated : ctaid=(3,13,0) tid=(4,9,0)
GPGPU-Sim uArch: cycles simulated: 133500  inst.: 10473404 (ipc=78.5) sim_rate=130917 (inst/sec) elapsed = 0:0:01:20 / Tue Apr 16 16:46:53 2019
GPGPU-Sim uArch: Shader 2 finished CTA #6 (133978,0), 5 CTAs running
GPGPU-Sim PTX: 10600000 instructions simulated : ctaid=(0,18,0) tid=(9,4,0)
GPGPU-Sim uArch: Shader 11 finished CTA #7 (134461,0), 3 CTAs running
GPGPU-Sim uArch: Shader 7 finished CTA #5 (134891,0), 5 CTAs running
GPGPU-Sim uArch: Shader 5 finished CTA #0 (134935,0), 2 CTAs running
GPGPU-Sim uArch: cycles simulated: 135500  inst.: 10660282 (ipc=78.7) sim_rate=131608 (inst/sec) elapsed = 0:0:01:21 / Tue Apr 16 16:46:54 2019
GPGPU-Sim uArch: Shader 9 finished CTA #6 (135536,0), 4 CTAs running
GPGPU-Sim PTX: 10700000 instructions simulated : ctaid=(0,21,0) tid=(0,9,0)
GPGPU-Sim uArch: Shader 12 finished CTA #6 (135547,0), 4 CTAs running
GPGPU-Sim uArch: Shader 6 finished CTA #7 (135899,0), 3 CTAs running
GPGPU-Sim uArch: Shader 8 finished CTA #6 (136463,0), 4 CTAs running
GPGPU-Sim uArch: Shader 4 finished CTA #6 (136593,0), 5 CTAs running
GPGPU-Sim uArch: Shader 1 finished CTA #7 (136621,0), 3 CTAs running
GPGPU-Sim PTX: 10800000 instructions simulated : ctaid=(2,26,0) tid=(0,9,0)
GPGPU-Sim uArch: Shader 0 finished CTA #6 (136757,0), 4 CTAs running
GPGPU-Sim uArch: Shader 3 finished CTA #7 (136828,0), 4 CTAs running
GPGPU-Sim uArch: Shader 14 finished CTA #6 (137214,0), 4 CTAs running
GPGPU-Sim uArch: cycles simulated: 137500  inst.: 10837863 (ipc=78.8) sim_rate=132169 (inst/sec) elapsed = 0:0:01:22 / Tue Apr 16 16:46:55 2019
GPGPU-Sim uArch: Shader 2 finished CTA #7 (137582,0), 4 CTAs running
GPGPU-Sim uArch: Shader 10 finished CTA #7 (137830,0), 3 CTAs running
GPGPU-Sim PTX: 10900000 instructions simulated : ctaid=(0,17,0) tid=(1,8,0)
GPGPU-Sim uArch: Shader 11 finished CTA #0 (137984,0), 2 CTAs running
GPGPU-Sim uArch: Shader 6 finished CTA #0 (138604,0), 2 CTAs running
GPGPU-Sim PTX: 11000000 instructions simulated : ctaid=(0,27,0) tid=(1,3,0)
GPGPU-Sim uArch: Shader 1 finished CTA #0 (139047,0), 2 CTAs running
GPGPU-Sim uArch: Shader 5 finished CTA #1 (139049,0), 1 CTAs running
GPGPU-Sim uArch: Shader 13 finished CTA #6 (139212,0), 4 CTAs running
GPGPU-Sim uArch: Shader 12 finished CTA #7 (139491,0), 3 CTAs running
GPGPU-Sim uArch: cycles simulated: 139500  inst.: 11022738 (ipc=79.0) sim_rate=132804 (inst/sec) elapsed = 0:0:01:23 / Tue Apr 16 16:46:56 2019
GPGPU-Sim uArch: Shader 7 finished CTA #6 (139555,0), 4 CTAs running
GPGPU-Sim uArch: Shader 11 finished CTA #1 (139568,0), 1 CTAs running
GPGPU-Sim uArch: Shader 8 finished CTA #7 (139912,0), 3 CTAs running
GPGPU-Sim PTX: 11100000 instructions simulated : ctaid=(3,18,0) tid=(5,7,0)
GPGPU-Sim uArch: Shader 10 finished CTA #0 (139993,0), 2 CTAs running
GPGPU-Sim uArch: Shader 4 finished CTA #7 (140264,0), 4 CTAs running
GPGPU-Sim uArch: Shader 11 finished CTA #2 (140441,0), 0 CTAs running
GPGPU-Sim uArch: Shader 11 empty (release kernel 1 '_Z17executeFirstLayerPfS_S_').
GPGPU-Sim uArch: Shader 6 finished CTA #1 (140792,0), 1 CTAs running
GPGPU-Sim PTX: 11200000 instructions simulated : ctaid=(0,24,0) tid=(5,8,0)
GPGPU-Sim uArch: Shader 9 finished CTA #7 (141440,0), 3 CTAs running
GPGPU-Sim uArch: Shader 0 finished CTA #7 (141613,0), 3 CTAs running
GPGPU-Sim uArch: Shader 6 finished CTA #2 (141806,0), 0 CTAs running
GPGPU-Sim uArch: Shader 6 empty (release kernel 1 '_Z17executeFirstLayerPfS_S_').
GPGPU-Sim uArch: Shader 14 finished CTA #7 (141991,0), 3 CTAs running
GPGPU-Sim uArch: Shader 10 finished CTA #1 (141998,0), 1 CTAs running
GPGPU-Sim uArch: cycles simulated: 142000  inst.: 11233024 (ipc=79.1) sim_rate=133726 (inst/sec) elapsed = 0:0:01:24 / Tue Apr 16 16:46:57 2019
GPGPU-Sim uArch: Shader 3 finished CTA #0 (142063,0), 3 CTAs running
GPGPU-Sim uArch: Shader 1 finished CTA #1 (142212,0), 1 CTAs running
GPGPU-Sim uArch: Shader 5 finished CTA #2 (142217,0), 0 CTAs running
GPGPU-Sim uArch: Shader 5 empty (release kernel 1 '_Z17executeFirstLayerPfS_S_').
GPGPU-Sim uArch: Shader 7 finished CTA #7 (142317,0), 3 CTAs running
GPGPU-Sim uArch: Shader 13 finished CTA #7 (142391,0), 3 CTAs running
GPGPU-Sim PTX: 11300000 instructions simulated : ctaid=(4,21,0) tid=(10,2,0)
GPGPU-Sim uArch: Shader 8 finished CTA #0 (142713,0), 2 CTAs running
GPGPU-Sim uArch: Shader 12 finished CTA #0 (142980,0), 2 CTAs running
GPGPU-Sim uArch: Shader 2 finished CTA #0 (143748,0), 3 CTAs running
GPGPU-Sim uArch: Shader 10 finished CTA #2 (143774,0), 0 CTAs running
GPGPU-Sim uArch: Shader 10 empty (release kernel 1 '_Z17executeFirstLayerPfS_S_').
GPGPU-Sim PTX: 11400000 instructions simulated : ctaid=(5,23,0) tid=(7,7,0)
GPGPU-Sim uArch: Shader 8 finished CTA #1 (144258,0), 1 CTAs running
GPGPU-Sim uArch: Shader 0 finished CTA #0 (144274,0), 2 CTAs running
GPGPU-Sim uArch: Shader 1 finished CTA #2 (144349,0), 0 CTAs running
GPGPU-Sim uArch: Shader 1 empty (release kernel 1 '_Z17executeFirstLayerPfS_S_').
GPGPU-Sim uArch: cycles simulated: 145000  inst.: 11427183 (ipc=78.8) sim_rate=134437 (inst/sec) elapsed = 0:0:01:25 / Tue Apr 16 16:46:58 2019
GPGPU-Sim uArch: Shader 12 finished CTA #1 (145127,0), 1 CTAs running
GPGPU-Sim uArch: Shader 8 finished CTA #2 (145425,0), 0 CTAs running
GPGPU-Sim uArch: Shader 8 empty (release kernel 1 '_Z17executeFirstLayerPfS_S_').
GPGPU-Sim PTX: 11500000 instructions simulated : ctaid=(1,27,0) tid=(7,12,0)
GPGPU-Sim uArch: Shader 9 finished CTA #0 (146022,0), 2 CTAs running
GPGPU-Sim uArch: Shader 3 finished CTA #1 (146177,0), 2 CTAs running
GPGPU-Sim uArch: Shader 14 finished CTA #0 (146680,0), 2 CTAs running
GPGPU-Sim uArch: Shader 2 finished CTA #1 (146851,0), 2 CTAs running
GPGPU-Sim uArch: Shader 0 finished CTA #1 (147120,0), 1 CTAs running
GPGPU-Sim uArch: Shader 12 finished CTA #2 (147146,0), 0 CTAs running
GPGPU-Sim uArch: Shader 12 empty (release kernel 1 '_Z17executeFirstLayerPfS_S_').
GPGPU-Sim PTX: 11600000 instructions simulated : ctaid=(1,27,0) tid=(11,12,0)
GPGPU-Sim uArch: Shader 4 finished CTA #0 (147488,0), 3 CTAs running
GPGPU-Sim uArch: Shader 13 finished CTA #0 (147549,0), 2 CTAs running
GPGPU-Sim uArch: Shader 7 finished CTA #0 (147751,0), 2 CTAs running
GPGPU-Sim uArch: Shader 9 finished CTA #1 (147751,0), 1 CTAs running
GPGPU-Sim uArch: Shader 0 finished CTA #2 (148152,0), 0 CTAs running
GPGPU-Sim uArch: Shader 0 empty (release kernel 1 '_Z17executeFirstLayerPfS_S_').
GPGPU-Sim uArch: Shader 13 finished CTA #1 (148500,0), 1 CTAs running
GPGPU-Sim uArch: Shader 9 finished CTA #2 (148517,0), 0 CTAs running
GPGPU-Sim uArch: Shader 9 empty (release kernel 1 '_Z17executeFirstLayerPfS_S_').
GPGPU-Sim uArch: Shader 14 finished CTA #1 (149049,0), 1 CTAs running
GPGPU-Sim uArch: Shader 3 finished CTA #2 (149135,0), 1 CTAs running
GPGPU-Sim uArch: cycles simulated: 149500  inst.: 11649959 (ipc=77.9) sim_rate=135464 (inst/sec) elapsed = 0:0:01:26 / Tue Apr 16 16:46:59 2019
GPGPU-Sim uArch: Shader 3 finished CTA #3 (149666,0), 0 CTAs running
GPGPU-Sim uArch: Shader 3 empty (release kernel 1 '_Z17executeFirstLayerPfS_S_').
GPGPU-Sim uArch: Shader 2 finished CTA #2 (149866,0), 1 CTAs running
GPGPU-Sim PTX: 11700000 instructions simulated : ctaid=(5,26,0) tid=(12,12,0)
GPGPU-Sim uArch: Shader 7 finished CTA #1 (150297,0), 1 CTAs running
GPGPU-Sim uArch: Shader 7 finished CTA #2 (150446,0), 0 CTAs running
GPGPU-Sim uArch: Shader 7 empty (release kernel 1 '_Z17executeFirstLayerPfS_S_').
GPGPU-Sim uArch: Shader 2 finished CTA #3 (150547,0), 0 CTAs running
GPGPU-Sim uArch: Shader 2 empty (release kernel 1 '_Z17executeFirstLayerPfS_S_').
GPGPU-Sim uArch: Shader 4 finished CTA #1 (150633,0), 2 CTAs running
GPGPU-Sim uArch: Shader 14 finished CTA #2 (150692,0), 0 CTAs running
GPGPU-Sim uArch: Shader 14 empty (release kernel 1 '_Z17executeFirstLayerPfS_S_').
GPGPU-Sim uArch: Shader 13 finished CTA #2 (150852,0), 0 CTAs running
GPGPU-Sim uArch: Shader 13 empty (release kernel 1 '_Z17executeFirstLayerPfS_S_').
GPGPU-Sim uArch: Shader 4 finished CTA #2 (153289,0), 1 CTAs running
GPGPU-Sim uArch: Shader 4 finished CTA #3 (154084,0), 0 CTAs running
GPGPU-Sim uArch: Shader 4 empty (release kernel 1 '_Z17executeFirstLayerPfS_S_').
GPGPU-Sim uArch: GPU detected kernel '_Z17executeFirstLayerPfS_S_' finished on shader 4.
kernel_name = _Z17executeFirstLayerPfS_S_ 
kernel_launch_uid = 1 
gpu_sim_cycle = 154085
gpu_sim_insn = 11694074
gpu_ipc =      75.8937
gpu_tot_sim_cycle = 154085
gpu_tot_sim_insn = 11694074
gpu_tot_ipc =      75.8937
gpu_tot_issued_cta = 0
gpu_stall_dramfull = 1346
gpu_stall_icnt2sh    = 212485
gpu_total_sim_rate=135977

========= Core cache stats =========
L1I_cache:
	L1I_total_cache_accesses = 244866
	L1I_total_cache_misses = 986
	L1I_total_cache_miss_rate = 0.0040
	L1I_total_cache_pending_hits = 0
	L1I_total_cache_reservation_fails = 4140
L1D_cache:
	L1D_cache_core[0]: Access = 9392, Miss = 6287, Miss_rate = 0.669, Pending_hits = 453, Reservation_fails = 132604
	L1D_cache_core[1]: Access = 9389, Miss = 6117, Miss_rate = 0.652, Pending_hits = 408, Reservation_fails = 127902
	L1D_cache_core[2]: Access = 10228, Miss = 6692, Miss_rate = 0.654, Pending_hits = 453, Reservation_fails = 133732
	L1D_cache_core[3]: Access = 10231, Miss = 6616, Miss_rate = 0.647, Pending_hits = 496, Reservation_fails = 132726
	L1D_cache_core[4]: Access = 10251, Miss = 6664, Miss_rate = 0.650, Pending_hits = 447, Reservation_fails = 137385
	L1D_cache_core[5]: Access = 9374, Miss = 6008, Miss_rate = 0.641, Pending_hits = 385, Reservation_fails = 125477
	L1D_cache_core[6]: Access = 9359, Miss = 6087, Miss_rate = 0.650, Pending_hits = 410, Reservation_fails = 126071
	L1D_cache_core[7]: Access = 9401, Miss = 6117, Miss_rate = 0.651, Pending_hits = 475, Reservation_fails = 135140
	L1D_cache_core[8]: Access = 9352, Miss = 6060, Miss_rate = 0.648, Pending_hits = 503, Reservation_fails = 129305
	L1D_cache_core[9]: Access = 9410, Miss = 5965, Miss_rate = 0.634, Pending_hits = 421, Reservation_fails = 133244
	L1D_cache_core[10]: Access = 9362, Miss = 6110, Miss_rate = 0.653, Pending_hits = 487, Reservation_fails = 127929
	L1D_cache_core[11]: Access = 9359, Miss = 5981, Miss_rate = 0.639, Pending_hits = 400, Reservation_fails = 124947
	L1D_cache_core[12]: Access = 9337, Miss = 6012, Miss_rate = 0.644, Pending_hits = 427, Reservation_fails = 131195
	L1D_cache_core[13]: Access = 9387, Miss = 6193, Miss_rate = 0.660, Pending_hits = 486, Reservation_fails = 135056
	L1D_cache_core[14]: Access = 9370, Miss = 6309, Miss_rate = 0.673, Pending_hits = 513, Reservation_fails = 134880
	L1D_total_cache_accesses = 143202
	L1D_total_cache_misses = 93218
	L1D_total_cache_miss_rate = 0.6510
	L1D_total_cache_pending_hits = 6764
	L1D_total_cache_reservation_fails = 1967593
	L1D_cache_data_port_util = 0.020
	L1D_cache_fill_port_util = 0.041
L1C_cache:
	L1C_total_cache_accesses = 28224
	L1C_total_cache_misses = 976
	L1C_total_cache_miss_rate = 0.0346
	L1C_total_cache_pending_hits = 0
	L1C_total_cache_reservation_fails = 5136
L1T_cache:
	L1T_total_cache_accesses = 0
	L1T_total_cache_misses = 0
	L1T_total_cache_pending_hits = 0
	L1T_total_cache_reservation_fails = 0

Total_core_cache_stats:
	Total_core_cache_stats_breakdown[GLOBAL_ACC_R][HIT] = 43220
	Total_core_cache_stats_breakdown[GLOBAL_ACC_R][HIT_RESERVED] = 6764
	Total_core_cache_stats_breakdown[GLOBAL_ACC_R][MISS] = 91358
	Total_core_cache_stats_breakdown[GLOBAL_ACC_R][RESERVATION_FAIL] = 1933836
	Total_core_cache_stats_breakdown[CONST_ACC_R][HIT] = 27248
	Total_core_cache_stats_breakdown[CONST_ACC_R][MISS] = 976
	Total_core_cache_stats_breakdown[CONST_ACC_R][RESERVATION_FAIL] = 5136
	Total_core_cache_stats_breakdown[GLOBAL_ACC_W][MISS] = 1860
	Total_core_cache_stats_breakdown[GLOBAL_ACC_W][RESERVATION_FAIL] = 33757
	Total_core_cache_stats_breakdown[INST_ACC_R][HIT] = 243880
	Total_core_cache_stats_breakdown[INST_ACC_R][MISS] = 986
	Total_core_cache_stats_breakdown[INST_ACC_R][RESERVATION_FAIL] = 4140
Shader 0 warp_id issue ditsribution:
warp_id:
0, 1, 2, 3, 4, 5, 6, 7, 8, 9, 10, 11, 12, 13, 14, 15, 16, 17, 18, 19, 20, 21, 22, 23, 24, 25, 26, 27, 28, 29, 30, 31, 32, 33, 34, 35, 36, 37, 38, 39, 40, 41, 42, 43, 44, 45, 46, 47, 
distro:
874, 874, 874, 874, 874, 831, 845, 874, 874, 874, 874, 816, 845, 874, 874, 874, 874, 874, 408, 437, 437, 437, 437, 437, 437, 437, 437, 437, 437, 437, 437, 437, 437, 437, 437, 408, 437, 437, 437, 437, 437, 437, 437, 437, 437, 437, 437, 408, 
gpgpu_n_tot_thrd_icount = 13976224
gpgpu_n_tot_w_icount = 436757
gpgpu_n_stall_shd_mem = 2063515
gpgpu_n_mem_read_local = 0
gpgpu_n_mem_write_local = 0
gpgpu_n_mem_read_global = 91358
gpgpu_n_mem_write_global = 1860
gpgpu_n_mem_texture = 0
gpgpu_n_mem_const = 45
gpgpu_n_load_insn  = 1447992
gpgpu_n_store_insn = 28392
gpgpu_n_shmem_insn = 0
gpgpu_n_tex_insn = 0
gpgpu_n_const_mem_insn = 709800
gpgpu_n_param_mem_insn = 85176
gpgpu_n_shmem_bkconflict = 0
gpgpu_n_cache_bkconflict = 0
gpgpu_n_intrawarp_mshr_merge = 0
gpgpu_n_cmem_portconflict = 5136
gpgpu_stall_shd_mem[c_mem][bk_conf] = 5136
gpgpu_stall_shd_mem[c_mem][mshr_rc] = 0
gpgpu_stall_shd_mem[c_mem][icnt_rc] = 0
gpgpu_stall_shd_mem[c_mem][data_port_stall] = 0
gpgpu_stall_shd_mem[t_mem][mshr_rc] = 0
gpgpu_stall_shd_mem[t_mem][icnt_rc] = 0
gpgpu_stall_shd_mem[t_mem][data_port_stall] = 0
gpgpu_stall_shd_mem[s_mem][bk_conf] = 0
gpgpu_stall_shd_mem[gl_mem][bk_conf] = 0
gpgpu_stall_shd_mem[gl_mem][coal_stall] = 2058379
gpgpu_stall_shd_mem[gl_mem][data_port_stall] = 0
gpgpu_stall_shd_mem[g_mem_ld][mshr_rc] = 0
gpgpu_stall_shd_mem[g_mem_ld][icnt_rc] = 0
gpgpu_stall_shd_mem[g_mem_ld][wb_icnt_rc] = 0
gpgpu_stall_shd_mem[g_mem_ld][wb_rsrv_fail] = 0
gpgpu_stall_shd_mem[g_mem_st][mshr_rc] = 0
gpgpu_stall_shd_mem[g_mem_st][icnt_rc] = 0
gpgpu_stall_shd_mem[g_mem_st][wb_icnt_rc] = 0
gpgpu_stall_shd_mem[g_mem_st][wb_rsrv_fail] = 0
gpgpu_stall_shd_mem[l_mem_ld][mshr_rc] = 0
gpgpu_stall_shd_mem[l_mem_ld][icnt_rc] = 0
gpgpu_stall_shd_mem[l_mem_ld][wb_icnt_rc] = 0
gpgpu_stall_shd_mem[l_mem_ld][wb_rsrv_fail] = 0
gpgpu_stall_shd_mem[l_mem_st][mshr_rc] = 0
gpgpu_stall_shd_mem[l_mem_st][icnt_rc] = 0
gpgpu_stall_shd_mem[l_mem_ld][wb_icnt_rc] = 0
gpgpu_stall_shd_mem[l_mem_ld][wb_rsrv_fail] = 0
gpu_reg_bank_conflict_stalls = 0
Warp Occupancy Distribution:
Stall:3484721	W0_Idle:367531	W0_Scoreboard:127249	W1:1617	W2:1706	W3:1602	W4:1573	W5:1910	W6:2148	W7:2029	W8:1839	W9:69677	W10:1230	W11:880	W12:982	W13:1064	W14:1298	W15:978	W16:903	W17:828	W18:938	W19:914	W20:652	W21:625	W22:705	W23:1064	W24:1036	W25:1062	W26:1332	W27:1100	W28:1093	W29:981	W30:664	W31:754	W32:331573
traffic_breakdown_coretomem[CONST_ACC_R] = 360 {8:45,}
traffic_breakdown_coretomem[GLOBAL_ACC_R] = 730864 {8:91358,}
traffic_breakdown_coretomem[GLOBAL_ACC_W] = 172800 {40:499,72:504,136:857,}
traffic_breakdown_coretomem[INST_ACC_R] = 840 {8:105,}
traffic_breakdown_memtocore[CONST_ACC_R] = 3240 {72:45,}
traffic_breakdown_memtocore[GLOBAL_ACC_R] = 12424688 {136:91358,}
traffic_breakdown_memtocore[GLOBAL_ACC_W] = 14880 {8:1860,}
traffic_breakdown_memtocore[INST_ACC_R] = 14280 {136:105,}
maxmrqlatency = 38 
maxdqlatency = 0 
maxmflatency = 478 
averagemflatency = 169 
max_icnt2mem_latency = 41 
max_icnt2sh_latency = 154084 
mrq_lat_table:1615 	495 	103 	155 	157 	1 	0 	0 	0 	0 	0 	0 	0 	0 	0 	0 	0 	0 	0 	0 	0 	0 	0 	0 	0 	0 	0 	0 	0 	0 	0 	0 	
dq_lat_table:0 	0 	0 	0 	0 	0 	0 	0 	0 	0 	0 	0 	0 	0 	0 	0 	0 	0 	0 	0 	0 	0 	0 	0 	0 	0 	0 	0 	0 	0 	0 	0 	
mf_lat_table:0 	0 	0 	0 	0 	0 	0 	91526 	1737 	0 	0 	0 	0 	0 	0 	0 	0 	0 	0 	0 	0 	0 	0 	0 	0 	0 	0 	0 	0 	0 	0 	0 	
icnt2mem_lat_table:0 	0 	0 	83751 	9576 	41 	0 	0 	0 	0 	0 	0 	0 	0 	0 	0 	0 	0 	0 	0 	0 	0 	0 	0 	
icnt2sh_lat_table:0 	0 	0 	22381 	40724 	26874 	1424 	0 	0 	0 	0 	0 	0 	0 	211 	396 	861 	392 	0 	0 	0 	0 	0 	0 	
mf_lat_pw_table:0 	0 	0 	0 	0 	0 	0 	305 	2 	0 	0 	0 	0 	0 	0 	0 	0 	0 	0 	0 	0 	0 	0 	0 	0 	0 	0 	0 	0 	0 	0 	0 	
maximum concurrent accesses to same row:
dram[0]:         1         0         0         0         0         0         0         0         0         0         0         0         0         0         0         0 
dram[1]:         1         0         0         0         0         0         0         0         0         0         0         0         0         0         0         0 
dram[2]:         0         0         0         0         0         0         0         0         0         0         0         0         0         0         0         0 
dram[3]:         0         0         0         0         0         0         0         0         0         0         0         0         0         0         0         0 
dram[4]:         0         0         0         0         0         0         0         0         0         0         0         0         0         0         0         0 
dram[5]:         0         0         0         0         0         0         0         0         0         0         0         0         0         0         0         0 
maximum service time to same row:
dram[0]:       350         0         0         0      1532      1574      1981      2001     21684       841     26038     36294     74625     72928         0         0 
dram[1]:      1863         0         0         0      1551      1569      1938      1997     24090     20899     27369     31884     78241     78872         0         0 
dram[2]:     19822         0         0         0      1549      1543      1934      2232      2066     22400     27710     34500     76113     79313         0         0 
dram[3]:     20540         0         0         0      1546      1537      1932      2199      2062     22877     31869     31341     76110     83578         0         0 
dram[4]:         0         0         0         0      1541      1538      2029      2210       847     22013     34663     30422     78497     80654         0         0 
dram[5]:         0         0         0         0      1579      1534      1962      1987       851     22010     34525     35044     72931     80644         0         0 
average row accesses per activate:
dram[0]:  1.000000      -nan      -nan      -nan 10.000000 10.000000 32.000000 32.000000 44.000000 43.000000 64.000000 64.000000 60.000000 60.000000      -nan      -nan 
dram[1]:  3.000000      -nan      -nan      -nan 10.000000 10.000000 32.000000 32.000000 44.000000 46.000000 64.000000 64.000000 60.000000 56.000000      -nan      -nan 
dram[2]:  2.000000      -nan      -nan      -nan 10.000000 12.000000 32.000000 32.000000 44.000000 46.000000 64.000000 64.000000 60.000000 56.000000      -nan      -nan 
dram[3]:  1.000000      -nan      -nan      -nan 10.000000 12.000000 32.000000 32.000000 44.000000 46.000000 64.000000 64.000000 60.000000 56.000000      -nan      -nan 
dram[4]:      -nan      -nan      -nan      -nan 10.000000 12.000000 32.000000 32.000000 44.000000 46.000000 64.000000 64.000000 60.000000 56.000000      -nan      -nan 
[...]
traffic_breakdown_coretomem[CONST_ACC_R] = 600 {8:75,}
traffic_breakdown_coretomem[GLOBAL_ACC_R] = 24486816 {8:3060852,}
traffic_breakdown_coretomem[GLOBAL_ACC_W] = 517200 {40:4279,72:1204,136:1907,}
traffic_breakdown_coretomem[INST_ACC_R] = 3000 {8:375,}
traffic_breakdown_memtocore[CONST_ACC_R] = 5400 {72:75,}
traffic_breakdown_memtocore[GLOBAL_ACC_R] = 416275872 {136:3060852,}
traffic_breakdown_memtocore[GLOBAL_ACC_W] = 59120 {8:7390,}
traffic_breakdown_memtocore[INST_ACC_R] = 51000 {136:375,}
maxmrqlatency = 85 
maxdqlatency = 0 
maxmflatency = 509 
averagemflatency = 152 
max_icnt2mem_latency = 67 
max_icnt2sh_latency = 10018437 
mrq_lat_table:7351 	929 	167 	390 	426 	15 	2 	0 	0 	0 	0 	0 	0 	0 	0 	0 	0 	0 	0 	0 	0 	0 	0 	0 	0 	0 	0 	0 	0 	0 	0 	0 	
dq_lat_table:0 	0 	0 	0 	0 	0 	0 	0 	0 	0 	0 	0 	0 	0 	0 	0 	0 	0 	0 	0 	0 	0 	0 	0 	0 	0 	0 	0 	0 	0 	0 	0 	
mf_lat_table:0 	0 	0 	0 	0 	0 	0 	3061016 	7301 	0 	0 	0 	0 	0 	0 	0 	0 	0 	0 	0 	0 	0 	0 	0 	0 	0 	0 	0 	0 	0 	0 	0 	
icnt2mem_lat_table:0 	0 	0 	2960086 	108305 	300 	1 	0 	0 	0 	0 	0 	0 	0 	0 	0 	0 	0 	0 	0 	0 	0 	0 	0 	
icnt2sh_lat_table:0 	0 	0 	1676776 	1096956 	273184 	14011 	0 	0 	0 	0 	0 	0 	0 	211 	396 	861 	496 	566 	1052 	916 	705 	1371 	816 	
mf_lat_pw_table:0 	0 	0 	0 	0 	0 	0 	20009 	5 	0 	0 	0 	0 	0 	0 	0 	0 	0 	0 	0 	0 	0 	0 	0 	0 	0 	0 	0 	0 	0 	0 	0 	
maximum concurrent accesses to same row:
dram[0]:        66        64        64        64        28        24        32        32        44        43        64        64        62        62        47        46 
dram[1]:        65        64        64        64        28        25        32        32        44        46        64        64        62        60        46        46 
dram[2]:        64        66        65        65        29        24        32        32        44        46        64        64        62        60        46        47 
dram[3]:        64        64        64        64        28        24        32        32        44        46        64        64        62        60        46        49 
dram[4]:        64        64        64        65        26        25        32        32        44        46        64        64        62        60        47        48 
dram[5]:        66        64        65        65        26        25        32        32        44        46        64        64        62        60        46        48 
maximum service time to same row:
dram[0]:    252085    165043    641062    661447   1068056   1126023     50608     43615   2287536   2386203     26038     36294     74625     72928       282       374 
dram[1]:    248194    299891    641056    674474   1081881   1099250     76880     42994   2269929   2328812     27369     31884     78241   1247197       288       285 
dram[2]:    233287    254307    680107    672628   1081686   1107176     39425     33460   2240928   2306331     27710     34500     76113   1268610      2439       356 
dram[3]:    232566    247518    649643    672625   1088625   1101119     60490     37831   2227065   2293771     31869     31341     76110   1282679       287       285 
dram[4]:    253256    251140    658966    674597   1089683   1109034     44816     54724   2318599   2240520     34663     30422     78497     80654       285       285 
dram[5]:    170787    257654    664738    675226   1096803   1113975     44819     54216   2268088   2252808     34525     35044     72931     80644      2425       309 
average row accesses per activate:
dram[0]: 17.000000 32.666668 48.000000 48.000000  2.666667  3.185185  2.666667  3.096774  2.440000  2.739130 48.000000 48.000000 31.666666 47.000000 39.500000 39.000000 
dram[1]: 25.250000 17.000000 48.000000 48.000000  3.034483  2.965517  2.666667  3.310345  2.489796  2.723404 48.000000 48.000000 47.000000 31.333334 39.000000 39.000000 
dram[2]: 32.666668 20.799999 48.500000 48.500000  3.826087  2.666667  3.200000  2.909091  2.440000  2.837209 48.000000 48.000000 47.000000 31.333334 39.000000 39.500000 
dram[3]: 32.666668 20.400000 48.000000 48.000000  3.520000  3.259259  2.909091  3.096774  2.480769  2.562500 48.000000 48.000000 47.000000 31.333334 39.000000 40.500000 
dram[4]: 32.666668 32.666668 48.000000 48.500000  3.480000  2.838710  3.096774  2.742857  2.529412  2.384615 48.000000 48.000000 47.000000 31.333334 39.500000 40.000000 
dram[5]: 33.333332 32.666668 48.500000 48.500000  2.774194  3.034483  2.666667  2.594594  2.645833  2.595745 48.000000 48.000000 47.000000 31.333334 39.000000 40.000000 
average row locality = 9280/1472 = 6.304348
number of total memory accesses made:
dram[0]:         0         0         0         0         0         0         0         0         0         0         0         0         0         0         0         0 
dram[1]:         0         0         0         0         0         0         0         0         0         0         0         0         0         0         0         0 
dram[2]:         0         0         0         0         0         0         0         0         0         0         0         0         0         0         0         0 
dram[3]:         0         0         0         0         0         0         0         0         0         0         0         0         0         0         0         0 
dram[4]:         0         0         0         0         0         0         0         0         0         0         0         0         0         0         0         0 
dram[5]:         0         0         0         0         0         0         0         0         0         0         0         0         0         0         0         0 
total accesses: 0
min_bank_accesses = 0!
min_chip_accesses = 0!
number of total read accesses:
dram[0]:        68        66        64        64        74        74        96        96        94        93        64        64        64        64        64        64 
dram[1]:        68        68        64        64        74        74        96        96        94        93        64        64        64        64        64        64 
dram[2]:        66        68        64        64        74        76        96        96        94        92        64        64        64        64        64        64 
dram[3]:        66        68        64        64        74        76        96        96        94        92        64        64        64        64        64        64 
dram[4]:        66        66        64        64        74        76        96        96        94        92        64        64        64        64        64        64 
dram[5]:        66        66        64        64        74        76        96        96        94        92        64        64        64        64        64        64 
total reads: 7040
bank skew: 96/64 = 1.50
chip skew: 1175/1172 = 1.00
number of total write accesses:
dram[0]:        34        32        32        32        14        12         0         0        28        33        32        32        31        30        15        14 
dram[1]:        33        34        32        32        14        12         0         0        28        35        32        32        30        30        14        14 
dram[2]:        32        36        33        33        14        12         0         0        28        30        32        32        30        30        14        15 
dram[3]:        32        34        32        32        14        12         0         0        35        31        32        32        30        30        14        17 
dram[4]:        32        32        32        33        13        12         0         0        35        32        32        32        30        30        15        16 
dram[5]:        34        32        33        33        12        12         0         0        33        30        32        32        30        30        14        16 
total reads: 2240
min_bank_accesses = 0!
chip skew: 377/371 = 1.02
average mf latency per bank:
dram[0]:      51956     54590     56984     55342     48366     47198     40736     39957     37807     35934     55677     55001     59348     55767     60166     61073
dram[1]:      53852     53126     56746     56677     48195     48548     40696     39597     37648     35448     54979     56695     59846     57441     61337     61531
dram[2]:      55960     50133     57218     55295     47380     48468     40185     40101     36025     37572     55162     55547     58060     57937     62148     58034
dram[3]:      56225     52990     59599     55738     48210     48750     40426     40599     34442     36840     55738     53385     56321     57994     61863     56897
dram[4]:      52346     55108     56393     55347     48116     47711     39703     41580     38093     36652     54327     54212     57795     58953     59142     60576
dram[5]:      51756     55925     55788     58378     49531     48502     39118     40186     38948     38124     56744     54811     56861     57146     60323     61803
maximum mf latency per bank:
dram[0]:        351       334       329       332       350       365       404       333       345       331       330       321       331       358       319       342
dram[1]:        320       499       340       505       471       509       352       469       355       485       321       305       334       481       319       487
dram[2]:        325       319       338       338       478       392       380       335       318       384       325       314       327       340       315       331
dram[3]:        349       325       316       313       373       426       396       333       388       325       344       320       336       315       399       325
dram[4]:        350       344       361       337       371       433       422       322       375       324       345       337       351       336       349       357
dram[5]:        337       361       312       318       329       401       406       391       314       340       339       329       345       345       318       349

Number of Memory Banks Accessed per Memory Operation per Warp (from 0):
0	0	0	0	0	0	0	0	0	0	0	0	0	0	0	0	0	0	0	0	0	0	0	0	0	0	0	0	0	0	0	0	0	0	0	0	0	0	0	0	0	0	0	0	0	0	0	0	0	0	0	0	0	0	0	0	0	0	0	0	0	0	0	0	0	0	0	0	0	0	0	0	0	0	0	0	0	0	0	0	0	0	0	0	0	0	0	0	0	0	0	0	0	0	0	0	
Average # of Memory Banks Accessed per Memory Operation per Warp=-nan

position of mrq chosen
0	0	0	0	0	0	0	0	0	0	0	0	0	0	0	0	

average position of mrq chosen = -nan
Memory Partition 0: 
Cache L2_bank_000:
MSHR contents

Cache L2_bank_001:
MSHR contents

In Dram Latency Queue (total = 0): 
DRAM[0]: 16 bks, busW=4 BL=8 CL=12, tRRD=2 tCCD=6, tRCD=12 tRAS=28 tRP=12 tRC=40
n_cmd=13224334 n_nop=13220957 n_act=249 n_pre=233 n_req=1544 n_rd=2346 n_write=549 bw_util=0.0004378
n_activity=29235 dram_eff=0.1981
bk0: 136a 13223489i bk1: 132a 13223633i bk2: 128a 13223648i bk3: 128a 13223656i bk4: 148a 13223139i bk5: 148a 13223240i bk6: 192a 13223030i bk7: 192a 13223107i bk8: 188a 13222374i bk9: 186a 13222423i bk10: 128a 13223470i bk11: 128a 13223505i bk12: 128a 13223518i bk13: 128a 13223575i bk14: 128a 13223849i bk15: 128a 13223840i 
dram_util_bins: 0 0 0 0 0 0 0 0 0 0
dram_eff_bins: 0 0 0 0 0 0 0 0 0 0
mrqq: max=5 avg=0.000244852
Memory Partition 1: 
Cache L2_bank_002:
MSHR contents

Cache L2_bank_003:
MSHR contents

In Dram Latency Queue (total = 0): 
DRAM[1]: 16 bks, busW=4 BL=8 CL=12, tRRD=2 tCCD=6, tRCD=12 tRAS=28 tRP=12 tRC=40
n_cmd=13224334 n_nop=13220944 n_act=247 n_pre=231 n_req=1547 n_rd=2350 n_write=562 bw_util=0.0004404
n_activity=29203 dram_eff=0.1994
bk0: 136a 13223505i bk1: 136a 13223498i bk2: 128a 13223615i bk3: 128a 13223668i bk4: 148a 13223242i bk5: 148a 13223187i bk6: 192a 13223071i bk7: 192a 13223175i bk8: 188a 13222413i bk9: 186a 13222383i bk10: 128a 13223467i bk11: 128a 13223489i bk12: 128a 13223541i bk13: 128a 13223533i bk14: 128a 13223830i bk15: 128a 13223804i 
dram_util_bins: 0 0 0 0 0 0 0 0 0 0
dram_eff_bins: 0 0 0 0 0 0 0 0 0 0
mrqq: max=5 avg=0.000271469
Memory Partition 2: 
Cache L2_bank_004:
MSHR contents

Cache L2_bank_005:
MSHR contents

In Dram Latency Queue (total = 0): 
DRAM[2]: 16 bks, busW=4 BL=8 CL=12, tRRD=2 tCCD=6, tRCD=12 tRAS=28 tRP=12 tRC=40
n_cmd=13224334 n_nop=13220974 n_act=237 n_pre=221 n_req=1545 n_rd=2348 n_write=554 bw_util=0.0004389
n_activity=28784 dram_eff=0.2016
bk0: 132a 13223600i bk1: 136a 13223511i bk2: 128a 13223662i bk3: 128a 13223637i bk4: 148a 13223350i bk5: 152a 13223086i bk6: 192a 13223204i bk7: 192a 13223071i bk8: 188a 13222365i bk9: 184a 13222517i bk10: 128a 13223450i bk11: 128a 13223483i bk12: 128a 13223516i bk13: 128a 13223576i bk14: 128a 13223833i bk15: 128a 13223829i 
dram_util_bins: 0 0 0 0 0 0 0 0 0 0
dram_eff_bins: 0 0 0 0 0 0 0 0 0 0
mrqq: max=4 avg=0.000231467
Memory Partition 3: 
Cache L2_bank_006:
MSHR contents

Cache L2_bank_007:
MSHR contents

In Dram Latency Queue (total = 0): 
DRAM[3]: 16 bks, busW=4 BL=8 CL=12, tRRD=2 tCCD=6, tRCD=12 tRAS=28 tRP=12 tRC=40
n_cmd=13224334 n_nop=13220952 n_act=241 n_pre=225 n_req=1551 n_rd=2348 n_write=568 bw_util=0.000441
n_activity=29040 dram_eff=0.2008
bk0: 132a 13223549i bk1: 136a 13223486i bk2: 128a 13223677i bk3: 128a 13223683i bk4: 148a 13223303i bk5: 152a 13223259i bk6: 192a 13223132i bk7: 192a 13223154i bk8: 188a 13222290i bk9: 184a 13222396i bk10: 128a 13223437i bk11: 128a 13223507i bk12: 128a 13223565i bk13: 128a 13223543i bk14: 128a 13223816i bk15: 128a 13223802i 
dram_util_bins: 0 0 0 0 0 0 0 0 0 0
dram_eff_bins: 0 0 0 0 0 0 0 0 0 0
mrqq: max=7 avg=0.00026489
Memory Partition 4: 
Cache L2_bank_008:
MSHR contents

Cache L2_bank_009:
MSHR contents

In Dram Latency Queue (total = 0): 
DRAM[4]: 16 bks, busW=4 BL=8 CL=12, tRRD=2 tCCD=6, tRCD=12 tRAS=28 tRP=12 tRC=40
n_cmd=13224334 n_nop=13220955 n_act=248 n_pre=232 n_req=1548 n_rd=2344 n_write=555 bw_util=0.0004384
n_activity=29104 dram_eff=0.1992
bk0: 132a 13223581i bk1: 132a 13223605i bk2: 128a 13223652i bk3: 128a 13223582i bk4: 148a 13223298i bk5: 152a 13223125i bk6: 192a 13223179i bk7: 192a 13223061i bk8: 188a 13222288i bk9: 184a 13222256i bk10: 128a 13223413i bk11: 128a 13223519i bk12: 128a 13223558i bk13: 128a 13223555i bk14: 128a 13223831i bk15: 128a 13223767i 
dram_util_bins: 0 0 0 0 0 0 0 0 0 0
dram_eff_bins: 0 0 0 0 0 0 0 0 0 0
mrqq: max=5 avg=0.000319789
Memory Partition 5: 
Cache L2_bank_010:
MSHR contents

Cache L2_bank_011:
MSHR contents

In Dram Latency Queue (total = 0): 
DRAM[5]: 16 bks, busW=4 BL=8 CL=12, tRRD=2 tCCD=6, tRCD=12 tRAS=28 tRP=12 tRC=40
n_cmd=13224334 n_nop=13220947 n_act=251 n_pre=235 n_req=1545 n_rd=2344 n_write=557 bw_util=0.0004387
n_activity=29342 dram_eff=0.1977
bk0: 132a 13223618i bk1: 132a 13223608i bk2: 128a 13223653i bk3: 128a 13223685i bk4: 148a 13223209i bk5: 152a 13223184i bk6: 192a 13223041i bk7: 192a 13222984i bk8: 188a 13222390i bk9: 184a 13222403i bk10: 128a 13223442i bk11: 128a 13223469i bk12: 128a 13223536i bk13: 128a 13223583i bk14: 128a 13223850i bk15: 128a 13223807i 
dram_util_bins: 0 0 0 0 0 0 0 0 0 0
dram_eff_bins: 0 0 0 0 0 0 0 0 0 0
mrqq: max=4 avg=0.000234719

========= L2 cache stats =========
L2_cache_bank[0]: Access = 257430, Miss = 588, Miss_rate = 0.002, Pending_hits = 45, Reservation_fails = 450
L2_cache_bank[1]: Access = 251713, Miss = 585, Miss_rate = 0.002, Pending_hits = 29, Reservation_fails = 70
L2_cache_bank[2]: Access = 257874, Miss = 588, Miss_rate = 0.002, Pending_hits = 33, Reservation_fails = 346
L2_cache_bank[3]: Access = 255761, Miss = 587, Miss_rate = 0.002, Pending_hits = 36, Reservation_fails = 211
L2_cache_bank[4]: Access = 256403, Miss = 586, Miss_rate = 0.002, Pending_hits = 25, Reservation_fails = 102
L2_cache_bank[5]: Access = 252777, Miss = 588, Miss_rate = 0.002, Pending_hits = 33, Reservation_fails = 122
L2_cache_bank[6]: Access = 258362, Miss = 586, Miss_rate = 0.002, Pending_hits = 33, Reservation_fails = 186
L2_cache_bank[7]: Access = 253486, Miss = 588, Miss_rate = 0.002, Pending_hits = 28, Reservation_fails = 209
L2_cache_bank[8]: Access = 253497, Miss = 586, Miss_rate = 0.002, Pending_hits = 41, Reservation_fails = 134
L2_cache_bank[9]: Access = 256387, Miss = 586, Miss_rate = 0.002, Pending_hits = 28, Reservation_fails = 226
L2_cache_bank[10]: Access = 255480, Miss = 586, Miss_rate = 0.002, Pending_hits = 30, Reservation_fails = 79
L2_cache_bank[11]: Access = 259522, Miss = 586, Miss_rate = 0.002, Pending_hits = 25, Reservation_fails = 101
L2_total_cache_accesses = 3068692
L2_total_cache_misses = 7040
L2_total_cache_miss_rate = 0.0023
L2_total_cache_pending_hits = 386
L2_total_cache_reservation_fails = 2236
L2_total_cache_breakdown:
	L2_cache_stats_breakdown[GLOBAL_ACC_R][HIT] = 3055596
	L2_cache_stats_breakdown[GLOBAL_ACC_R][HIT_RESERVED] = 323
	L2_cache_stats_breakdown[GLOBAL_ACC_R][MISS] = 4933
	L2_cache_stats_breakdown[GLOBAL_ACC_R][RESERVATION_FAIL] = 1198
	L2_cache_stats_breakdown[CONST_ACC_R][HIT] = 63
	L2_cache_stats_breakdown[CONST_ACC_R][HIT_RESERVED] = 9
	L2_cache_stats_breakdown[CONST_ACC_R][MISS] = 3
	L2_cache_stats_breakdown[CONST_ACC_R][RESERVATION_FAIL] = 311
	L2_cache_stats_breakdown[GLOBAL_ACC_W][HIT] = 5283
	L2_cache_stats_breakdown[GLOBAL_ACC_W][HIT_RESERVED] = 28
	L2_cache_stats_breakdown[GLOBAL_ACC_W][MISS] = 2079
	L2_cache_stats_breakdown[INST_ACC_R][HIT] = 324
	L2_cache_stats_breakdown[INST_ACC_R][HIT_RESERVED] = 26
	L2_cache_stats_breakdown[INST_ACC_R][MISS] = 25
	L2_cache_stats_breakdown[INST_ACC_R][RESERVATION_FAIL] = 727
L2_cache_data_port_util = 0.102
L2_cache_fill_port_util = 0.000

icnt_total_pkts_mem_to_simt=15313750
icnt_total_pkts_simt_to_mem=3083007
LD_mem_lat_dist  0 0 0 0 0 0 0 0 0 0 0 0 0 0 0 0 0 0 0 0 0 0 0 0 0 0 0
ST_mem_lat_dist  0 0 0 0 0 0 0 0 0 0 0 0 0 0 0 0 0 0 0 0 0 0 0 0 0 0 0
----------------------------Interconnect-DETAILS--------------------------------
Class 0:
Packet latency average = 8.75
	minimum = 6
	maximum = 53
Network latency average = 8.67107
	minimum = 6
	maximum = 50
Slowest packet = 6121445
Flit latency average = 7.06362
	minimum = 6
	maximum = 46
Slowest flit = 18349646
Fragmentation average = 0
	minimum = 0
	maximum = 0
Injected packet rate average = 0.0106628
	minimum = 0.00595769 (at node 1)
	maximum = 0.0141272 (at node 16)
Accepted packet rate average = 0.0106628
	minimum = 0.00595769 (at node 1)
	maximum = 0.0141272 (at node 16)
Injected flit rate average = 0.0314335
	minimum = 0.00638579 (at node 1)
	maximum = 0.0697442 (at node 17)
Accepted flit rate average= 0.0314335
	minimum = 0.0090614 (at node 20)
	maximum = 0.0693161 (at node 6)
Injected packet length average = 2.94796
Accepted packet length average = 2.94796
Total in-flight flits = 0 (0 measured)
====== Overall Traffic Statistics ======
====== Traffic class 0 ======
Packet latency average = 12.9762 (4 samples)
	minimum = 6 (4 samples)
	maximum = 81.25 (4 samples)
Network latency average = 11.9105 (4 samples)
	minimum = 6 (4 samples)
	maximum = 73 (4 samples)
Flit latency average = 10.9822 (4 samples)
	minimum = 6 (4 samples)
	maximum = 70 (4 samples)
Fragmentation average = 0 (4 samples)
	minimum = 0 (4 samples)
	maximum = 0 (4 samples)
Injected packet rate average = 0.0301817 (4 samples)
	minimum = 0.0250062 (4 samples)
	maximum = 0.0394024 (4 samples)
Accepted packet rate average = 0.0301817 (4 samples)
	minimum = 0.0250062 (4 samples)
	maximum = 0.0394024 (4 samples)
Injected flit rate average = 0.0902145 (4 samples)
	minimum = 0.0257314 (4 samples)
	maximum = 0.195583 (4 samples)
Accepted flit rate average = 0.0902145 (4 samples)
	minimum = 0.0319657 (4 samples)
	maximum = 0.146379 (4 samples)
Injected packet size average = 2.98905 (4 samples)
Accepted packet size average = 2.98905 (4 samples)
Hops average = 1 (4 samples)
----------------------------END-of-Interconnect-DETAILS-------------------------


gpgpu_simulation_time = 0 days, 0 hrs, 54 min, 22 sec (3262 sec)
gpgpu_simulation_rate = 24019 (inst/sec)
gpgpu_simulation_rate = 3071 (cycle/sec)
7 2 1 0 4 1 4 9 6 9 0 6 9 0 1 5 9 7 3 4 9 6 6 5 4 0 7 4
