

        *** GPGPU-Sim Simulator Version 3.2.2  [build 0] ***


GPGPU-Sim PTX: simulation mode 0 (can change with PTX_SIM_MODE_FUNC environment variable:
               1=functional simulation only, 0=detailed performance simulator)
GPGPU-Sim: Configuration options:

-network_mode                           1 # Interconnection network mode
-inter_config_file   config_fermi_islip.icnt # Interconnection network config file
-gpgpu_ptx_use_cuobjdump                    1 # Use cuobjdump to extract ptx and sass from binaries
-gpgpu_experimental_lib_support                    0 # Try to extract code from cuda libraries [Broken because of unknown cudaGetExportTable]
-gpgpu_ptx_convert_to_ptxplus                    0 # Convert SASS (native ISA) to ptxplus and run ptxplus
-gpgpu_ptx_force_max_capability                   20 # Force maximum compute capability
-gpgpu_ptx_inst_debug_to_file                    0 # Dump executed instructions' debug information to file
-gpgpu_ptx_inst_debug_file       inst_debug.txt # Executed instructions' debug output file
-gpgpu_ptx_inst_debug_thread_uid                    1 # Thread UID for executed instructions' debug output
-gpgpu_simd_model                       1 # 1 = post-dominator
-gpgpu_shader_core_pipeline              1536:32 # shader core pipeline config, i.e., {<nthread>:<warpsize>}
-gpgpu_tex_cache:l1  4:128:24,L:R:m:N:L,F:128:4,128:2 # per-shader L1 texture cache  (READ-ONLY) config  {<nsets>:<bsize>:<assoc>,<rep>:<wr>:<alloc>:<wr_alloc>,<mshr>:<N>:<merge>,<mq>:<rf>}
-gpgpu_const_cache:l1 64:64:2,L:R:f:N:L,A:2:32,4 # per-shader L1 constant memory cache  (READ-ONLY) config  {<nsets>:<bsize>:<assoc>,<rep>:<wr>:<alloc>:<wr_alloc>,<mshr>:<N>:<merge>,<mq>} 
-gpgpu_cache:il1     4:128:4,L:R:f:N:L,A:2:32,4 # shader L1 instruction cache config  {<nsets>:<bsize>:<assoc>,<rep>:<wr>:<alloc>:<wr_alloc>,<mshr>:<N>:<merge>,<mq>} 
-gpgpu_cache:dl1     64:128:8,L:L:m:N:H,A:32:8,8 # per-shader L1 data cache config  {<nsets>:<bsize>:<assoc>,<rep>:<wr>:<alloc>:<wr_alloc>,<mshr>:<N>:<merge>,<mq> | none}
-gpgpu_cache:dl1PrefL1                 none # per-shader L1 data cache config  {<nsets>:<bsize>:<assoc>,<rep>:<wr>:<alloc>:<wr_alloc>,<mshr>:<N>:<merge>,<mq> | none}
-gpgpu_cache:dl1PreShared                 none # per-shader L1 data cache config  {<nsets>:<bsize>:<assoc>,<rep>:<wr>:<alloc>:<wr_alloc>,<mshr>:<N>:<merge>,<mq> | none}
-gmem_skip_L1D                          0 # global memory access skip L1D cache (implements -Xptxas -dlcm=cg, default=no skip)
-gpgpu_perfect_mem                      0 # enable perfect memory mode (no cache miss)
-n_regfile_gating_group                    4 # group of lanes that should be read/written together)
-gpgpu_clock_gated_reg_file                    0 # enable clock gated reg file for power calculations
-gpgpu_clock_gated_lanes                    0 # enable clock gated lanes for power calculations
-gpgpu_shader_registers                32768 # Number of registers per shader core. Limits number of concurrent CTAs. (default 8192)
-gpgpu_shader_cta                       8 # Maximum number of concurrent CTAs in shader (default 8)
-gpgpu_num_cta_barriers                   16 # Maximum number of named barriers per CTA (default 16)
-gpgpu_n_clusters                      15 # number of processing clusters
-gpgpu_n_cores_per_cluster                    1 # number of simd cores per cluster
-gpgpu_n_cluster_ejection_buffer_size                    8 # number of packets in ejection buffer
-gpgpu_n_ldst_response_buffer_size                    2 # number of response packets in ld/st unit ejection buffer
-gpgpu_shmem_size                   16384 # Size of shared memory per shader core (default 16kB)
-gpgpu_shmem_size                   49152 # Size of shared memory per shader core (default 16kB)
-gpgpu_shmem_size_PrefL1                16384 # Size of shared memory per shader core (default 16kB)
-gpgpu_shmem_size_PrefShared                16384 # Size of shared memory per shader core (default 16kB)
-gpgpu_shmem_num_banks                   32 # Number of banks in the shared memory in each shader core (default 16)
-gpgpu_shmem_limited_broadcast                    0 # Limit shared memory to do one broadcast per cycle (default on)
-gpgpu_shmem_warp_parts                    1 # Number of portions a warp is divided into for shared memory bank conflict check 
-gpgpu_warpdistro_shader                   -1 # Specify which shader core to collect the warp size distribution from
-gpgpu_warp_issue_shader                    0 # Specify which shader core to collect the warp issue distribution from
-gpgpu_local_mem_map                    1 # Mapping from local memory space address to simulated GPU physical address space (default = enabled)
-gpgpu_num_reg_banks                   16 # Number of register banks (default = 8)
-gpgpu_reg_bank_use_warp_id                    0 # Use warp ID in mapping registers to banks (default = off)
-gpgpu_operand_collector_num_units_sp                    6 # number of collector units (default = 4)
-gpgpu_operand_collector_num_units_sfu                    8 # number of collector units (default = 4)
-gpgpu_operand_collector_num_units_mem                    2 # number of collector units (default = 2)
-gpgpu_operand_collector_num_units_gen                    0 # number of collector units (default = 0)
-gpgpu_operand_collector_num_in_ports_sp                    2 # number of collector unit in ports (default = 1)
-gpgpu_operand_collector_num_in_ports_sfu                    1 # number of collector unit in ports (default = 1)
-gpgpu_operand_collector_num_in_ports_mem                    1 # number of collector unit in ports (default = 1)
-gpgpu_operand_collector_num_in_ports_gen                    0 # number of collector unit in ports (default = 0)
-gpgpu_operand_collector_num_out_ports_sp                    2 # number of collector unit in ports (default = 1)
-gpgpu_operand_collector_num_out_ports_sfu                    1 # number of collector unit in ports (default = 1)
-gpgpu_operand_collector_num_out_ports_mem                    1 # number of collector unit in ports (default = 1)
-gpgpu_operand_collector_num_out_ports_gen                    0 # number of collector unit in ports (default = 0)
-gpgpu_coalesce_arch                   13 # Coalescing arch (default = 13, anything else is off for now)
-gpgpu_num_sched_per_core                    2 # Number of warp schedulers per core
-gpgpu_max_insn_issue_per_warp                    1 # Max number of instructions that can be issued per warp in one cycle by scheduler
-gpgpu_simt_core_sim_order                    1 # Select the simulation order of cores in a cluster (0=Fix, 1=Round-Robin)
-gpgpu_pipeline_widths        2,1,1,2,1,1,2 # Pipeline widths ID_OC_SP,ID_OC_SFU,ID_OC_MEM,OC_EX_SP,OC_EX_SFU,OC_EX_MEM,EX_WB
-gpgpu_num_sp_units                     2 # Number of SP units (default=1)
-gpgpu_num_sfu_units                    1 # Number of SF units (default=1)
-gpgpu_num_mem_units                    1 # Number if ldst units (default=1) WARNING: not hooked up to anything
-gpgpu_scheduler                      gto # Scheduler configuration: < lrr | gto | two_level_active > If two_level_active:<num_active_warps>:<inner_prioritization>:<outer_prioritization>For complete list of prioritization values see shader.h enum scheduler_prioritization_typeDefault: gto
-gpgpu_dram_scheduler                    1 # 0 = fifo, 1 = FR-FCFS (defaul)
-gpgpu_dram_partition_queues              8:8:8:8 # i2$:$2d:d2$:$2i
-l2_ideal                               0 # Use a ideal L2 cache that always hit
-gpgpu_cache:dl2     64:128:8,L:B:m:W:L,A:32:4,4:0,32 # unified banked L2 data cache config  {<nsets>:<bsize>:<assoc>,<rep>:<wr>:<alloc>:<wr_alloc>,<mshr>:<N>:<merge>,<mq>}
-gpgpu_cache:dl2_texture_only                    0 # L2 cache used for texture only
-gpgpu_n_mem                            6 # number of memory modules (e.g. memory controllers) in gpu
-gpgpu_n_sub_partition_per_mchannel                    2 # number of memory subpartition in each memory module
-gpgpu_n_mem_per_ctrlr                    2 # number of memory chips per memory controller
-gpgpu_memlatency_stat                   14 # track and display latency statistics 0x2 enables MC, 0x4 enables queue logs
-gpgpu_frfcfs_dram_sched_queue_size                   16 # 0 = unlimited (default); # entries per chip
-gpgpu_dram_return_queue_size                  116 # 0 = unlimited (default); # entries per chip
-gpgpu_dram_buswidth                    4 # default = 4 bytes (8 bytes per cycle at DDR)
-gpgpu_dram_burst_length                    8 # Burst length of each DRAM request (default = 4 data bus cycle)
-dram_data_command_freq_ratio                    4 # Frequency ratio between DRAM data bus and command bus (default = 2 times, i.e. DDR)
-gpgpu_dram_timing_opt nbk=16:CCD=2:RRD=6:RCD=12:RAS=28:RP=12:RC=40: CL=12:WL=4:CDLR=5:WR=12:nbkgrp=4:CCDL=3:RTPL=2 # DRAM timing parameters = {nbk:tCCD:tRRD:tRCD:tRAS:tRP:tRC:CL:WL:tCDLR:tWR:nbkgrp:tCCDL:tRTPL}
-rop_latency                          120 # ROP queue latency (default 85)
-dram_latency                         100 # DRAM latency (default 30)
-gpgpu_mem_addr_mapping dramid@8;00000000.00000000.00000000.00000000.0000RRRR.RRRRRRRR.BBBCCCCB.CCSSSSSS # mapping memory address to dram model {dramid@<start bit>;<memory address map>}
-gpgpu_mem_addr_test                    0 # run sweep test to check address mapping for aliased address
-gpgpu_mem_address_mask                    1 # 0 = old addressing mask, 1 = new addressing mask, 2 = new add. mask + flipped bank sel and chip sel bits
-gpuwattch_xml_file  gpuwattch_gtx480.xml # GPUWattch XML file
-power_simulation_enabled                    1 # Turn on power simulator (1=On, 0=Off)
-power_per_cycle_dump                    0 # Dump detailed power output each cycle
-power_trace_enabled                    0 # produce a file for the power trace (1=On, 0=Off)
-power_trace_zlevel                     6 # Compression level of the power trace output log (0=no comp, 9=highest)
-steady_power_levels_enabled                    0 # produce a file for the steady power levels (1=On, 0=Off)
-steady_state_definition                  8:4 # allowed deviation:number of samples
-gpgpu_max_cycle                        0 # terminates gpu simulation early (0 = no limit)
-gpgpu_max_insn                         0 # terminates gpu simulation early (0 = no limit)
-gpgpu_max_cta                          0 # terminates gpu simulation early (0 = no limit)
-gpgpu_runtime_stat                   500 # display runtime statistics such as dram utilization {<freq>:<flag>}
-liveness_message_freq                    1 # Minimum number of seconds between simulation liveness messages (0 = always print)
-gpgpu_flush_l1_cache                    0 # Flush L1 cache at the end of each kernel call
-gpgpu_flush_l2_cache                    0 # Flush L2 cache at the end of each kernel call
-gpgpu_deadlock_detect                    1 # Stop the simulation at deadlock (1=on (default), 0=off)
-gpgpu_ptx_instruction_classification                    0 # if enabled will classify ptx instruction types per kernel (Max 255 kernels now)
-gpgpu_ptx_sim_mode                     0 # Select between Performance (default) or Functional simulation (1)
-gpgpu_clock_domains 700.0:700.0:700.0:924.0 # Clock Domain Frequencies in MhZ {<Core Clock>:<ICNT Clock>:<L2 Clock>:<DRAM Clock>}
-gpgpu_max_concurrent_kernel                    8 # maximum kernels that can run concurrently on GPU
-gpgpu_cflog_interval                    0 # Interval between each snapshot in control flow logger
-visualizer_enabled                     0 # Turn on visualizer output (1=On, 0=Off)
-visualizer_outputfile                 NULL # Specifies the output log file for visualizer
-visualizer_zlevel                      6 # Compression level of the visualizer output log (0=no comp, 9=highest)
-trace_enabled                          0 # Turn on traces
-trace_components                    none # comma seperated list of traces to enable. Complete list found in trace_streams.tup. Default none
-trace_sampling_core                    0 # The core which is printed using CORE_DPRINTF. Default 0
-trace_sampling_memory_partition                   -1 # The memory partition which is printed using MEMPART_DPRINTF. Default -1 (i.e. all)
-enable_ptx_file_line_stats                    1 # Turn on PTX source line statistic profiling. (1 = On)
-ptx_line_stats_filename gpgpu_inst_stats.txt # Output file for PTX source line statistics.
-save_embedded_ptx                      0 # saves ptx files embedded in binary as <n>.ptx
-keep                                   0 # keep intermediate files created by GPGPU-Sim when interfacing with external programs
-gpgpu_ptx_save_converted_ptxplus                    0 # Saved converted ptxplus to a file
-ptx_opcode_latency_int         4,13,4,5,145 # Opcode latencies for integers <ADD,MAX,MUL,MAD,DIV>Default 1,1,19,25,145
-ptx_opcode_latency_fp          4,13,4,5,39 # Opcode latencies for single precision floating points <ADD,MAX,MUL,MAD,DIV>Default 1,1,1,1,30
-ptx_opcode_latency_dp         8,19,8,8,330 # Opcode latencies for double precision floating points <ADD,MAX,MUL,MAD,DIV>Default 8,8,8,8,335
-ptx_opcode_initiation_int            1,2,2,1,8 # Opcode initiation intervals for integers <ADD,MAX,MUL,MAD,DIV>Default 1,1,4,4,32
-ptx_opcode_initiation_fp            1,2,1,1,4 # Opcode initiation intervals for single precision floating points <ADD,MAX,MUL,MAD,DIV>Default 1,1,1,1,5
-ptx_opcode_initiation_dp         8,16,8,8,130 # Opcode initiation intervals for double precision floating points <ADD,MAX,MUL,MAD,DIV>Default 8,8,8,8,130
DRAM Timing Options:
nbk                                    16 # number of banks
CCD                                     2 # column to column delay
RRD                                     6 # minimal delay between activation of rows in different banks
RCD                                    12 # row to column delay
RAS                                    28 # time needed to activate row
RP                                     12 # time needed to precharge (deactivate) row
RC                                     40 # row cycle time
CDLR                                    5 # switching from write to read (changes tWTR)
WR                                     12 # last data-in to row precharge
CL                                     12 # CAS latency
WL                                      4 # Write latency
nbkgrp                                  4 # number of bank groups
CCDL                                    3 # column to column delay between accesses to different bank groups
RTPL                                    2 # read to precharge delay between accesses to different bank groups
Total number of memory sub partition = 12
addr_dec_mask[CHIP]  = 0000000000000000 	high:64 low:0
addr_dec_mask[BK]    = 000000000000e100 	high:16 low:8
addr_dec_mask[ROW]   = 000000000fff0000 	high:28 low:16
addr_dec_mask[COL]   = 0000000000001eff 	high:13 low:0
addr_dec_mask[BURST] = 000000000000003f 	high:6 low:0
sub_partition_id_mask = 0000000000000100
GPGPU-Sim uArch: clock freqs: 700000000.000000:700000000.000000:700000000.000000:924000000.000000
GPGPU-Sim uArch: clock periods: 0.00000000142857142857:0.00000000142857142857:0.00000000142857142857:0.00000000108225108225
*** Initializing Memory Statistics ***
GPGPU-Sim uArch: interconnect node map (shaderID+MemID to icntID)
GPGPU-Sim uArch: Memory nodes ID start from index: 15
GPGPU-Sim uArch:    0   1   2   3   4
GPGPU-Sim uArch:    5   6   7   8   9
GPGPU-Sim uArch:   10  11  12  13  14
GPGPU-Sim uArch:   15  16  17  18  19
GPGPU-Sim uArch:   20  21  22  23  24
GPGPU-Sim uArch:   25  26
GPGPU-Sim uArch: interconnect node reverse map (icntID to shaderID+MemID)
GPGPU-Sim uArch: Memory nodes start from ID: 15
GPGPU-Sim uArch:    0   1   2   3   4
GPGPU-Sim uArch:    5   6   7   8   9
GPGPU-Sim uArch:   10  11  12  13  14
GPGPU-Sim uArch:   15  16  17  18  19
GPGPU-Sim uArch:   20  21  22  23  24
GPGPU-Sim uArch:   25  26
2a552cef618c3eed1202856b15bdbc61  /home/scratch/adwait/applications/benchmarks/CUDA/RAY/gpgpu_ptx_sim__RAY
GPGPU-Sim uArch: performance model initialization complete.
GPGPU-Sim PTX: __cudaRegisterFatBinary, fat_cubin_handle = 1, filename=rayTracing.cu
self exe links to: /home/scratch/adwait/applications/benchmarks/CUDA/RAY/gpgpu_ptx_sim__RAY
Running md5sum using "md5sum /home/scratch/adwait/applications/benchmarks/CUDA/RAY/gpgpu_ptx_sim__RAY "
Running cuobjdump using "$CUDA_INSTALL_PATH/bin/cuobjdump -ptx -elf -sass /home/scratch/adwait/applications/benchmarks/CUDA/RAY/gpgpu_ptx_sim__RAY > _cuobjdump_complete_output_Cm7XTn"
Parsing file _cuobjdump_complete_output_Cm7XTn
######### cuobjdump parser ########
## Adding new section ELF
Adding arch: sm_20
Adding identifier: rayTracing.cu
## Adding new section PTX
Adding ptx filename: _cuobjdump_1.ptx
Adding arch: sm_20
Adding identifier: rayTracing.cu
Done parsing!!!
GPGPU-Sim PTX: __cudaRegisterFunction _Z6renderPjP4Nodejjff : hostFun 0x0x40d033, fat_cubin_handle = 1
GPGPU-Sim PTX: allocating stack frame region for .param "__cudaretf__Zmi6float3S_" from 0x0 to 0xc
GPGPU-Sim PTX: allocating stack frame region for .param "__cudaparmf1__Zmi6float3S_" from 0xc to 0x18
GPGPU-Sim PTX: allocating stack frame region for .param "__cudaparmf2__Zmi6float3S_" from 0x18 to 0x24
GPGPU-Sim PTX: allocating stack frame region for .param "__cudaretf__Z9normalize6float3" from 0x0 to 0xc
GPGPU-Sim PTX: allocating stack frame region for .param "__cudaparmf1__Z9normalize6float3" from 0xc to 0x18
GPGPU-Sim PTX: allocating stack frame region for .param "__cudaretf__Z18intersectionSphere5Rayon6float3f" from 0x0 to 0x4
GPGPU-Sim PTX: allocating stack frame region for .param "__cudaparmf1__Z18intersectionSphere5Rayon6float3f" from 0x4 to 0x1c
GPGPU-Sim PTX: allocating stack frame region for .param "__cudaparmf2__Z18intersectionSphere5Rayon6float3f" from 0x1c to 0x28
GPGPU-Sim PTX: allocating stack frame region for .param "__cudaparmf3__Z18intersectionSphere5Rayon6float3f" from 0x28 to 0x2c
GPGPU-Sim PTX: allocating stack frame region for .param "__cudaretf__Z16intersectionPlan5Rayon6float3S0_" from 0x0 to 0x4
GPGPU-Sim PTX: allocating stack frame region for .param "__cudaparmf1__Z16intersectionPlan5Rayon6float3S0_" from 0x4 to 0x1c
GPGPU-Sim PTX: allocating stack frame region for .param "__cudaparmf2__Z16intersectionPlan5Rayon6float3S0_" from 0x1c to 0x28
GPGPU-Sim PTX: allocating stack frame region for .param "__cudaparmf3__Z16intersectionPlan5Rayon6float3S0_" from 0x28 to 0x34
GPGPU-Sim PTX: allocating stack frame region for .param "__cudaretf__Z10getNormale6float3S_" from 0x0 to 0xc
GPGPU-Sim PTX: allocating stack frame region for .param "__cudaparmf1__Z10getNormale6float3S_" from 0xc to 0x18
GPGPU-Sim PTX: allocating stack frame region for .param "__cudaparmf2__Z10getNormale6float3S_" from 0x18 to 0x24
GPGPU-Sim PTX: allocating stack frame region for .param "__cudaretf__Z11getNormaleP6float3" from 0x0 to 0xc
GPGPU-Sim PTX: allocating stack frame region for .param "__cudaparmf1__Z11getNormaleP6float3" from 0xc to 0x18
GPGPU-Sim PTX: allocating stack frame region for .param "__cudaretf__Z14rgbaFloatToInt6float4" from 0x0 to 0x4
GPGPU-Sim PTX: allocating stack frame region for .param "__cudaparmf1__Z14rgbaFloatToInt6float4" from 0x4 to 0x14
GPGPU-Sim PTX: allocating stack frame region for .param "__cudaretf__Z12notShadowRayP4Node6float3S1_f" from 0x0 to 0x4
GPGPU-Sim PTX: allocating stack frame region for .param "__cudaparmf1__Z12notShadowRayP4Node6float3S1_f" from 0x4 to 0xc
GPGPU-Sim PTX: allocating stack frame region for .param "__cudaparmf2__Z12notShadowRayP4Node6float3S1_f" from 0xc to 0x18
GPGPU-Sim PTX: allocating stack frame region for .param "__cudaparmf3__Z12notShadowRayP4Node6float3S1_f" from 0x18 to 0x24
GPGPU-Sim PTX: allocating stack frame region for .param "__cudaparmf4__Z12notShadowRayP4Node6float3S1_f" from 0x24 to 0x28
GPGPU-Sim PTX: allocating stack frame region for .param "__cudaretf__Z15float2int_pow20f" from 0x0 to 0x4
GPGPU-Sim PTX: allocating stack frame region for .param "__cudaparmf1__Z15float2int_pow20f" from 0x4 to 0x8
GPGPU-Sim PTX: allocating stack frame region for .param "__cudaretf__Z15float2int_pow50f" from 0x0 to 0x4
GPGPU-Sim PTX: allocating stack frame region for .param "__cudaparmf1__Z15float2int_pow50f" from 0x4 to 0x8
GPGPU-Sim PTX: allocating stack frame region for .param "__cudaparmf1__ZN4dim3C1Ejjj" from 0x0 to 0x8
GPGPU-Sim PTX: allocating stack frame region for .param "__cudaparmf2__ZN4dim3C1Ejjj" from 0x8 to 0xc
GPGPU-Sim PTX: allocating stack frame region for .param "__cudaparmf3__ZN4dim3C1Ejjj" from 0xc to 0x10
GPGPU-Sim PTX: allocating stack frame region for .param "__cudaparmf4__ZN4dim3C1Ejjj" from 0x10 to 0x14
GPGPU-Sim PTX: instruction assembly for function '_Zmi6float3S_'...   done.
GPGPU-Sim PTX: finding reconvergence points for '_Zmi6float3S_'...
GPGPU-Sim PTX: Finding dominators for '_Zmi6float3S_'...
GPGPU-Sim PTX: Finding immediate dominators for '_Zmi6float3S_'...
GPGPU-Sim PTX: Finding postdominators for '_Zmi6float3S_'...
GPGPU-Sim PTX: Finding immediate postdominators for '_Zmi6float3S_'...
GPGPU-Sim PTX: pre-decoding instructions for '_Zmi6float3S_'...
GPGPU-Sim PTX: reconvergence points for _Zmi6float3S_...
GPGPU-Sim PTX: ... end of reconvergence points for _Zmi6float3S_
GPGPU-Sim PTX: ... done pre-decoding instructions for '_Zmi6float3S_'.
GPGPU-Sim PTX: instruction assembly for function '_Z9normalize6float3'...   done.
GPGPU-Sim PTX: finding reconvergence points for '_Z9normalize6float3'...
GPGPU-Sim PTX: Finding dominators for '_Z9normalize6float3'...
GPGPU-Sim PTX: Finding immediate dominators for '_Z9normalize6float3'...
GPGPU-Sim PTX: Finding postdominators for '_Z9normalize6float3'...
GPGPU-Sim PTX: Finding immediate postdominators for '_Z9normalize6float3'...
GPGPU-Sim PTX: pre-decoding instructions for '_Z9normalize6float3'...
GPGPU-Sim PTX: reconvergence points for _Z9normalize6float3...
GPGPU-Sim PTX: ... end of reconvergence points for _Z9normalize6float3
GPGPU-Sim PTX: ... done pre-decoding instructions for '_Z9normalize6float3'.
GPGPU-Sim PTX: instruction assembly for function '_Z18intersectionSphere5Rayon6float3f'...   done.
GPGPU-Sim PTX: finding reconvergence points for '_Z18intersectionSphere5Rayon6float3f'...
GPGPU-Sim PTX: Finding dominators for '_Z18intersectionSphere5Rayon6float3f'...
GPGPU-Sim PTX: Finding immediate dominators for '_Z18intersectionSphere5Rayon6float3f'...
GPGPU-Sim PTX: Finding postdominators for '_Z18intersectionSphere5Rayon6float3f'...
GPGPU-Sim PTX: Finding immediate postdominators for '_Z18intersectionSphere5Rayon6float3f'...
GPGPU-Sim PTX: pre-decoding instructions for '_Z18intersectionSphere5Rayon6float3f'...
GPGPU-Sim PTX: reconvergence points for _Z18intersectionSphere5Rayon6float3f...
GPGPU-Sim PTX:  1 (potential) branch divergence @  PC=0x250 (_1.ptx:173) @%p2 bra $Lt_2_3074;
GPGPU-Sim PTX:    immediate post dominator      @  PC=0x2c0 (_1.ptx:193) mov.f32 %f39, %f32;
GPGPU-Sim PTX:  2 (potential) branch divergence @  PC=0x260 (_1.ptx:175) bra.uni $Lt_2_2818;
GPGPU-Sim PTX:    immediate post dominator      @  PC=0x2c0 (_1.ptx:193) mov.f32 %f39, %f32;
GPGPU-Sim PTX:  3 (potential) branch divergence @  PC=0x280 (_1.ptx:180) @!%p3 bra $Lt_2_3586;
GPGPU-Sim PTX:    immediate post dominator      @  PC=0x2c0 (_1.ptx:193) mov.f32 %f39, %f32;
GPGPU-Sim PTX:  4 (potential) branch divergence @  PC=0x290 (_1.ptx:182) bra.uni $Lt_2_3330;
GPGPU-Sim PTX:    immediate post dominator      @  PC=0x2c0 (_1.ptx:193) mov.f32 %f39, %f32;
GPGPU-Sim PTX: ... end of reconvergence points for _Z18intersectionSphere5Rayon6float3f
GPGPU-Sim PTX: ... done pre-decoding instructions for '_Z18intersectionSphere5Rayon6float3f'.
GPGPU-Sim PTX: instruction assembly for function '_Z16intersectionPlan5Rayon6float3S0_'...   done.
GPGPU-Sim PTX: finding reconvergence points for '_Z16intersectionPlan5Rayon6float3S0_'...
GPGPU-Sim PTX: Finding dominators for '_Z16intersectionPlan5Rayon6float3S0_'...
GPGPU-Sim PTX: Finding immediate dominators for '_Z16intersectionPlan5Rayon6float3S0_'...
GPGPU-Sim PTX: Finding postdominators for '_Z16intersectionPlan5Rayon6float3S0_'...
GPGPU-Sim PTX: Finding immediate postdominators for '_Z16intersectionPlan5Rayon6float3S0_'...
GPGPU-Sim PTX: pre-decoding instructions for '_Z16intersectionPlan5Rayon6float3S0_'...
GPGPU-Sim PTX: reconvergence points for _Z16intersectionPlan5Rayon6float3S0_...
GPGPU-Sim PTX:  1 (potential) branch divergence @  PC=0x320 (_1.ptx:214) @!%p1 bra $Lt_3_2050;
GPGPU-Sim PTX:    immediate post dominator      @  PC=0x368 (_1.ptx:227) mov.f32 %f14, %f9;
GPGPU-Sim PTX:  2 (potential) branch divergence @  PC=0x330 (_1.ptx:216) bra.uni $Lt_3_1794;
GPGPU-Sim PTX:    immediate post dominator      @  PC=0x368 (_1.ptx:227) mov.f32 %f14, %f9;
GPGPU-Sim PTX: ... end of reconvergence points for _Z16intersectionPlan5Rayon6float3S0_
GPGPU-Sim PTX: ... done pre-decoding instructions for '_Z16intersectionPlan5Rayon6float3S0_'.
GPGPU-Sim PTX: instruction assembly for function '_Z10getNormale6float3S_'...   done.
GPGPU-Sim PTX: finding reconvergence points for '_Z10getNormale6float3S_'...
GPGPU-Sim PTX: Finding dominators for '_Z10getNormale6float3S_'...
GPGPU-Sim PTX: Finding immediate dominators for '_Z10getNormale6float3S_'...
GPGPU-Sim PTX: Finding postdominators for '_Z10getNormale6float3S_'...
GPGPU-Sim PTX: Finding immediate postdominators for '_Z10getNormale6float3S_'...
GPGPU-Sim PTX: pre-decoding instructions for '_Z10getNormale6float3S_'...
GPGPU-Sim PTX: reconvergence points for _Z10getNormale6float3S_...
GPGPU-Sim PTX: ... end of reconvergence points for _Z10getNormale6float3S_
GPGPU-Sim PTX: ... done pre-decoding instructions for '_Z10getNormale6float3S_'.
GPGPU-Sim PTX: instruction assembly for function '_Z11getNormaleP6float3'...   done.
GPGPU-Sim PTX: finding reconvergence points for '_Z11getNormaleP6float3'...
GPGPU-Sim PTX: Finding dominators for '_Z11getNormaleP6float3'...
GPGPU-Sim PTX: Finding immediate dominators for '_Z11getNormaleP6float3'...
GPGPU-Sim PTX: Finding postdominators for '_Z11getNormaleP6float3'...
GPGPU-Sim PTX: Finding immediate postdominators for '_Z11getNormaleP6float3'...
GPGPU-Sim PTX: pre-decoding instructions for '_Z11getNormaleP6float3'...
GPGPU-Sim PTX: reconvergence points for _Z11getNormaleP6float3...
GPGPU-Sim PTX: ... end of reconvergence points for _Z11getNormaleP6float3
GPGPU-Sim PTX: ... done pre-decoding instructions for '_Z11getNormaleP6float3'.
GPGPU-Sim PTX: instruction assembly for function '_Z14rgbaFloatToInt6float4'...   done.
GPGPU-Sim PTX: finding reconvergence points for '_Z14rgbaFloatToInt6float4'...
GPGPU-Sim PTX: Finding dominators for '_Z14rgbaFloatToInt6float4'...
GPGPU-Sim PTX: Finding immediate dominators for '_Z14rgbaFloatToInt6float4'...
GPGPU-Sim PTX: Finding postdominators for '_Z14rgbaFloatToInt6float4'...
GPGPU-Sim PTX: Finding immediate postdominators for '_Z14rgbaFloatToInt6float4'...
GPGPU-Sim PTX: pre-decoding instructions for '_Z14rgbaFloatToInt6float4'...
GPGPU-Sim PTX: reconvergence points for _Z14rgbaFloatToInt6float4...
GPGPU-Sim PTX: ... end of reconvergence points for _Z14rgbaFloatToInt6float4
GPGPU-Sim PTX: ... done pre-decoding instructions for '_Z14rgbaFloatToInt6float4'.
GPGPU-Sim PTX: allocating global region for "cnode" from 0x100 to 0x1a0 (global memory space)
GPGPU-Sim PTX: instruction assembly for function '_Z12notShadowRayP4Node6float3S1_f'...   done.
GPGPU-Sim PTX: finding reconvergence points for '_Z12notShadowRayP4Node6float3S1_f'...
GPGPU-Sim PTX: Finding dominators for '_Z12notShadowRayP4Node6float3S1_f'...
GPGPU-Sim PTX: Finding immediate dominators for '_Z12notShadowRayP4Node6float3S1_f'...
GPGPU-Sim PTX: Finding postdominators for '_Z12notShadowRayP4Node6float3S1_f'...
GPGPU-Sim PTX: Finding immediate postdominators for '_Z12notShadowRayP4Node6float3S1_f'...
GPGPU-Sim PTX: pre-decoding instructions for '_Z12notShadowRayP4Node6float3S1_f'...
GPGPU-Sim PTX: reconvergence points for _Z12notShadowRayP4Node6float3S1_f...
GPGPU-Sim PTX:  1 (potential) branch divergence @  PC=0x638 (_1.ptx:364) @%p1 bra $Lt_7_8450;
GPGPU-Sim PTX:    immediate post dominator      @  PC=0x828 (_1.ptx:441) mov.f32 %f58, 0f00000000;    // 0
GPGPU-Sim PTX:  2 (potential) branch divergence @  PC=0x658 (_1.ptx:369) @!%p2 bra $Lt_7_8962;
GPGPU-Sim PTX:    immediate post dominator      @  PC=0x6b8 (_1.ptx:385) mov.f32 %f28, %f20;
GPGPU-Sim PTX:  3 (potential) branch divergence @  PC=0x668 (_1.ptx:371) bra.uni $Lt_7_8706;
GPGPU-Sim PTX:    immediate post dominator      @  PC=0x6b8 (_1.ptx:385) mov.f32 %f28, %f20;
GPGPU-Sim PTX:  4 (potential) branch divergence @  PC=0x6c0 (_1.ptx:386) bra.uni $Lt_7_8194;
GPGPU-Sim PTX:    immediate post dominator      @  PC=0x828 (_1.ptx:441) mov.f32 %f58, 0f00000000;    // 0
GPGPU-Sim PTX:  5 (potential) branch divergence @  PC=0x7b0 (_1.ptx:418) @%p5 bra $Lt_7_9474;
GPGPU-Sim PTX:    immediate post dominator      @  PC=0x820 (_1.ptx:438) mov.f32 %f28, %f51;
GPGPU-Sim PTX:  6 (potential) branch divergence @  PC=0x7c0 (_1.ptx:420) bra.uni $Lt_7_9730;
GPGPU-Sim PTX:    immediate post dominator      @  PC=0x820 (_1.ptx:438) mov.f32 %f28, %f51;
GPGPU-Sim PTX:  7 (potential) branch divergence @  PC=0x7e0 (_1.ptx:425) @!%p6 bra $Lt_7_9986;
GPGPU-Sim PTX:    immediate post dominator      @  PC=0x820 (_1.ptx:438) mov.f32 %f28, %f51;
GPGPU-Sim PTX:  8 (potential) branch divergence @  PC=0x7f0 (_1.ptx:427) bra.uni $Lt_7_9730;
GPGPU-Sim PTX:    immediate post dominator      @  PC=0x820 (_1.ptx:438) mov.f32 %f28, %f51;
GPGPU-Sim PTX:  9 (potential) branch divergence @  PC=0x838 (_1.ptx:443) @!%p7 bra $Lt_7_10242;
GPGPU-Sim PTX:    immediate post dominator      @  PC=0x8e8 (_1.ptx:468) add.s32 %r1, %r1, 1;
GPGPU-Sim PTX: 10 (potential) branch divergence @  PC=0x8d8 (_1.ptx:463) @!%p8 bra $Lt_7_10242;
GPGPU-Sim PTX:    immediate post dominator      @  PC=0x8e8 (_1.ptx:468) add.s32 %r1, %r1, 1;
GPGPU-Sim PTX: 11 (potential) branch divergence @  PC=0x908 (_1.ptx:472) @%p9 bra $Lt_7_10754;
GPGPU-Sim PTX:    immediate post dominator      @  PC=0x960 (_1.ptx:486) selp.s32 %r10, 1, 0, %p11;
GPGPU-Sim PTX: 12 (potential) branch divergence @  PC=0x930 (_1.ptx:477) @%p10 bra $L_7_7170;
GPGPU-Sim PTX:    immediate post dominator      @  PC=0x960 (_1.ptx:486) selp.s32 %r10, 1, 0, %p11;
GPGPU-Sim PTX: 13 (potential) branch divergence @  PC=0x938 (_1.ptx:478) bra.uni $L_7_7938;
GPGPU-Sim PTX:    immediate post dominator      @  PC=0x960 (_1.ptx:486) selp.s32 %r10, 1, 0, %p11;
GPGPU-Sim PTX: ... end of reconvergence points for _Z12notShadowRayP4Node6float3S1_f
GPGPU-Sim PTX: ... done pre-decoding instructions for '_Z12notShadowRayP4Node6float3S1_f'.
GPGPU-Sim PTX: instruction assembly for function '_Z15float2int_pow20f'...   done.
GPGPU-Sim PTX: finding reconvergence points for '_Z15float2int_pow20f'...
GPGPU-Sim PTX: Finding dominators for '_Z15float2int_pow20f'...
GPGPU-Sim PTX: Finding immediate dominators for '_Z15float2int_pow20f'...
GPGPU-Sim PTX: Finding postdominators for '_Z15float2int_pow20f'...
GPGPU-Sim PTX: Finding immediate postdominators for '_Z15float2int_pow20f'...
GPGPU-Sim PTX: pre-decoding instructions for '_Z15float2int_pow20f'...
GPGPU-Sim PTX: reconvergence points for _Z15float2int_pow20f...
GPGPU-Sim PTX: ... end of reconvergence points for _Z15float2int_pow20f
GPGPU-Sim PTX: ... done pre-decoding instructions for '_Z15float2int_pow20f'.
GPGPU-Sim PTX: instruction assembly for function '_Z15float2int_pow50f'...   done.
GPGPU-Sim PTX: finding reconvergence points for '_Z15float2int_pow50f'...
GPGPU-Sim PTX: Finding dominators for '_Z15float2int_pow50f'...
GPGPU-Sim PTX: Finding immediate dominators for '_Z15float2int_pow50f'...
GPGPU-Sim PTX: Finding postdominators for '_Z15float2int_pow50f'...
GPGPU-Sim PTX: Finding immediate postdominators for '_Z15float2int_pow50f'...
GPGPU-Sim PTX: pre-decoding instructions for '_Z15float2int_pow50f'...
GPGPU-Sim PTX: reconvergence points for _Z15float2int_pow50f...
GPGPU-Sim PTX: ... end of reconvergence points for _Z15float2int_pow50f
GPGPU-Sim PTX: ... done pre-decoding instructions for '_Z15float2int_pow50f'.
GPGPU-Sim PTX: allocating constant region for "MView" from 0x200 to 0x230 (global memory space) 1
GPGPU-Sim PTX: allocating stack frame region for .local "__cuda___cuda_local_var_36206_9_non_const_pile_32240" from 0x0 to 0x50
GPGPU-Sim PTX: instruction assembly for function '_Z6renderPjP4Nodejjff'...   done.
GPGPU-Sim PTX: finding reconvergence points for '_Z6renderPjP4Nodejjff'...
GPGPU-Sim PTX: Finding dominators for '_Z6renderPjP4Nodejjff'...
GPGPU-Sim PTX: Finding immediate dominators for '_Z6renderPjP4Nodejjff'...
GPGPU-Sim PTX: Finding postdominators for '_Z6renderPjP4Nodejjff'...
GPGPU-Sim PTX: Finding immediate postdominators for '_Z6renderPjP4Nodejjff'...
GPGPU-Sim PTX: pre-decoding instructions for '_Z6renderPjP4Nodejjff'...
GPGPU-Sim PTX: reconvergence points for _Z6renderPjP4Nodejjff...
GPGPU-Sim PTX:  1 (potential) branch divergence @  PC=0xdb0 (_1.ptx:663) @%p1 bra $Lt_10_44034;
GPGPU-Sim PTX:    immediate post dominator      @  PC=0x2370 (_1.ptx:1495) exit;
GPGPU-Sim PTX:  2 (potential) branch divergence @  PC=0x1028 (_1.ptx:751) @%p2 bra $Lt_10_45570;
GPGPU-Sim PTX:    immediate post dominator      @  PC=0x11b8 (_1.ptx:815) mov.f32 %f108, 0f00000000;   // 0
GPGPU-Sim PTX:  3 (potential) branch divergence @  PC=0x1048 (_1.ptx:756) @!%p3 bra $Lt_10_46082;
GPGPU-Sim PTX:    immediate post dominator      @  PC=0x1090 (_1.ptx:769) mov.f32 %f87, %f82;
GPGPU-Sim PTX:  4 (potential) branch divergence @  PC=0x1058 (_1.ptx:758) bra.uni $Lt_10_45826;
GPGPU-Sim PTX:    immediate post dominator      @  PC=0x1090 (_1.ptx:769) mov.f32 %f87, %f82;
GPGPU-Sim PTX:  5 (potential) branch divergence @  PC=0x1098 (_1.ptx:770) bra.uni $Lt_10_45314;
GPGPU-Sim PTX:    immediate post dominator      @  PC=0x11b8 (_1.ptx:815) mov.f32 %f108, 0f00000000;   // 0
GPGPU-Sim PTX:  6 (potential) branch divergence @  PC=0x1140 (_1.ptx:793) @%p6 bra $Lt_10_46594;
GPGPU-Sim PTX:    immediate post dominator      @  PC=0x11b0 (_1.ptx:813) mov.f32 %f87, %f101;
GPGPU-Sim PTX:  7 (potential) branch divergence @  PC=0x1150 (_1.ptx:795) bra.uni $Lt_10_46850;
GPGPU-Sim PTX:    immediate post dominator      @  PC=0x11b0 (_1.ptx:813) mov.f32 %f87, %f101;
GPGPU-Sim PTX:  8 (potential) branch divergence @  PC=0x1170 (_1.ptx:800) @!%p7 bra $Lt_10_47106;
GPGPU-Sim PTX:    immediate post dominator      @  PC=0x11b0 (_1.ptx:813) mov.f32 %f87, %f101;
GPGPU-Sim PTX:  9 (potential) branch divergence @  PC=0x1180 (_1.ptx:802) bra.uni $Lt_10_46850;
GPGPU-Sim PTX:    immediate post dominator      @  PC=0x11b0 (_1.ptx:813) mov.f32 %f87, %f101;
GPGPU-Sim PTX: 10 (potential) branch divergence @  PC=0x11f8 (_1.ptx:823) @%p8 bra $Lt_10_47362;
GPGPU-Sim PTX:    immediate post dominator      @  PC=0x1210 (_1.ptx:829) add.s32 %r25, %r25, 1;
GPGPU-Sim PTX: 11 (potential) branch divergence @  PC=0x1230 (_1.ptx:833) @%p9 bra $Lt_10_45058;
GPGPU-Sim PTX:    immediate post dominator      @  PC=0x1238 (_1.ptx:834) mov.f32 %f109, 0f00000000;   // 0
GPGPU-Sim PTX: 12 (potential) branch divergence @  PC=0x1280 (_1.ptx:843) @%p10 bra $Lt_10_48130;
GPGPU-Sim PTX:    immediate post dominator      @  PC=0x2140 (_1.ptx:1416) add.s32 %r23, %r23, 1;
GPGPU-Sim PTX: 13 (potential) branch divergence @  PC=0x1330 (_1.ptx:868) @%p11 bra $Lt_10_48898;
GPGPU-Sim PTX:    immediate post dominator      @  PC=0x13b8 (_1.ptx:888) sub.f32 %f136, %f21, %f119;
GPGPU-Sim PTX: 14 (potential) branch divergence @  PC=0x1350 (_1.ptx:873) bra.uni $Lt_10_48642;
GPGPU-Sim PTX:    immediate post dominator      @  PC=0x13b8 (_1.ptx:888) sub.f32 %f136, %f21, %f119;
GPGPU-Sim PTX: 15 (potential) branch divergence @  PC=0x1430 (_1.ptx:903) @!%p12 bra $Lt_10_49410;
GPGPU-Sim PTX:    immediate post dominator      @  PC=0x1470 (_1.ptx:915) mov.f32 %f153, 0f3d4ccccd;   // 0.05
GPGPU-Sim PTX: 16 (potential) branch divergence @  PC=0x1450 (_1.ptx:908) bra.uni $Lt_10_49154;
GPGPU-Sim PTX:    immediate post dominator      @  PC=0x1470 (_1.ptx:915) mov.f32 %f153, 0f3d4ccccd;   // 0.05
GPGPU-Sim PTX: 17 (potential) branch divergence @  PC=0x1578 (_1.ptx:949) @!%p13 bra $Lt_10_58114;
GPGPU-Sim PTX:    immediate post dominator      @  PC=0x2080 (_1.ptx:1388) add.f32 %f399, %f126, %f126;
GPGPU-Sim PTX: 18 (potential) branch divergence @  PC=0x15c0 (_1.ptx:961) @%p14 bra $Lt_10_49922;
GPGPU-Sim PTX:    immediate post dominator      @  PC=0x17b0 (_1.ptx:1039) mov.f32 %f221, 0f00000000;   // 0
GPGPU-Sim PTX: 19 (potential) branch divergence @  PC=0x15e0 (_1.ptx:966) @!%p15 bra $Lt_10_50434;
GPGPU-Sim PTX:    immediate post dominator      @  PC=0x1638 (_1.ptx:982) mov.f32 %f190, %f183;
GPGPU-Sim PTX: 20 (potential) branch divergence @  PC=0x15f0 (_1.ptx:968) bra.uni $Lt_10_50178;
GPGPU-Sim PTX:    immediate post dominator      @  PC=0x1638 (_1.ptx:982) mov.f32 %f190, %f183;
GPGPU-Sim PTX: 21 (potential) branch divergence @  PC=0x1640 (_1.ptx:983) bra.uni $Lt_10_49666;
GPGPU-Sim PTX:    immediate post dominator      @  PC=0x17b0 (_1.ptx:1039) mov.f32 %f221, 0f00000000;   // 0
GPGPU-Sim PTX: 22 (potential) branch divergence @  PC=0x1738 (_1.ptx:1016) @%p18 bra $Lt_10_50946;
GPGPU-Sim PTX:    immediate post dominator      @  PC=0x17a8 (_1.ptx:1036) mov.f32 %f190, %f214;
GPGPU-Sim PTX: 23 (potential) branch divergence @  PC=0x1748 (_1.ptx:1018) bra.uni $Lt_10_51202;
GPGPU-Sim PTX:    immediate post dominator      @  PC=0x17a8 (_1.ptx:1036) mov.f32 %f190, %f214;
GPGPU-Sim PTX: 24 (potential) branch divergence @  PC=0x1768 (_1.ptx:1023) @!%p19 bra $Lt_10_51458;
GPGPU-Sim PTX:    immediate post dominator      @  PC=0x17a8 (_1.ptx:1036) mov.f32 %f190, %f214;
GPGPU-Sim PTX: 25 (potential) branch divergence @  PC=0x1778 (_1.ptx:1025) bra.uni $Lt_10_51202;
GPGPU-Sim PTX:    immediate post dominator      @  PC=0x17a8 (_1.ptx:1036) mov.f32 %f190, %f214;
GPGPU-Sim PTX: 26 (potential) branch divergence @  PC=0x17c0 (_1.ptx:1041) @!%p20 bra $Lt_10_58370;
GPGPU-Sim PTX:    immediate post dominator      @  PC=0x1828 (_1.ptx:1057) add.s32 %r50, %r50, 1;
GPGPU-Sim PTX: 27 (potential) branch divergence @  PC=0x1818 (_1.ptx:1052) @!%p21 bra $Lt_10_58370;
GPGPU-Sim PTX:    immediate post dominator      @  PC=0x1828 (_1.ptx:1057) add.s32 %r50, %r50, 1;
GPGPU-Sim PTX: 28 (potential) branch divergence @  PC=0x1848 (_1.ptx:1061) @%p22 bra $Lt_10_58882;
GPGPU-Sim PTX:    immediate post dominator      @  PC=0x1880 (_1.ptx:1071) @!%p23 bra $Lt_10_58114;
GPGPU-Sim PTX: 29 (potential) branch divergence @  PC=0x1860 (_1.ptx:1064) @%p23 bra $L_10_42498;
GPGPU-Sim PTX:    immediate post dominator      @  PC=0x1880 (_1.ptx:1071) @!%p23 bra $Lt_10_58114;
GPGPU-Sim PTX: 30 (potential) branch divergence @  PC=0x1868 (_1.ptx:1065) bra.uni $L_10_43266;
GPGPU-Sim PTX:    immediate post dominator      @  PC=0x1880 (_1.ptx:1071) @!%p23 bra $Lt_10_58114;
GPGPU-Sim PTX: 31 (potential) branch divergence @  PC=0x1880 (_1.ptx:1071) @!%p23 bra $Lt_10_58114;
GPGPU-Sim PTX:    immediate post dominator      @  PC=0x2080 (_1.ptx:1388) add.f32 %f399, %f126, %f126;
GPGPU-Sim PTX: 32 (potential) branch divergence @  PC=0x19c8 (_1.ptx:1115) @!%p24 bra $Lt_10_51714;
GPGPU-Sim PTX:    immediate post dominator      @  PC=0x2040 (_1.ptx:1375) mov.f32 %f394, 0f3f4ccccd;   // 0.8
GPGPU-Sim PTX: 33 (potential) branch divergence @  PC=0x19d8 (_1.ptx:1118) bra.uni $LDWendi___isnanf_192_1;
GPGPU-Sim PTX:    immediate post dominator      @  PC=0x2040 (_1.ptx:1375) mov.f32 %f394, 0f3f4ccccd;   // 0.8
GPGPU-Sim PTX: 34 (potential) branch divergence @  PC=0x19f8 (_1.ptx:1124) @!%p25 bra $Lt_10_7682;
GPGPU-Sim PTX:    immediate post dominator      @  PC=0x2040 (_1.ptx:1375) mov.f32 %f394, 0f3f4ccccd;   // 0.8
GPGPU-Sim PTX: 35 (potential) branch divergence @  PC=0x1a00 (_1.ptx:1125) bra.uni $Lt_10_7938;
GPGPU-Sim PTX:    immediate post dominator      @  PC=0x1a20 (_1.ptx:1133) mov.f32 %f272, 0f7f800000;   // ((1.0F)/(0.0F))
GPGPU-Sim PTX: 36 (potential) branch divergence @  PC=0x1a18 (_1.ptx:1130) bra.uni $LDWendi___isnanf_192_1;
GPGPU-Sim PTX:    immediate post dominator      @  PC=0x2040 (_1.ptx:1375) mov.f32 %f394, 0f3f4ccccd;   // 0.8
GPGPU-Sim PTX: 37 (potential) branch divergence @  PC=0x1a30 (_1.ptx:1135) @!%p26 bra $Lt_10_52226;
GPGPU-Sim PTX:    immediate post dominator      @  PC=0x2040 (_1.ptx:1375) mov.f32 %f394, 0f3f4ccccd;   // 0.8
GPGPU-Sim PTX: 38 (potential) branch divergence @  PC=0x1a40 (_1.ptx:1138) bra.uni $LDWendi___isnanf_192_1;
GPGPU-Sim PTX:    immediate post dominator      @  PC=0x2040 (_1.ptx:1375) mov.f32 %f394, 0f3f4ccccd;   // 0.8
GPGPU-Sim PTX: 39 (potential) branch divergence @  PC=0x1a58 (_1.ptx:1142) @!%p27 bra $Lt_10_52738;
GPGPU-Sim PTX:    immediate post dominator      @  PC=0x2040 (_1.ptx:1375) mov.f32 %f394, 0f3f4ccccd;   // 0.8
GPGPU-Sim PTX: 40 (potential) branch divergence @  PC=0x1ab8 (_1.ptx:1155) bra.uni $LDWendi___isnanf_192_1;
GPGPU-Sim PTX:    immediate post dominator      @  PC=0x2040 (_1.ptx:1375) mov.f32 %f394, 0f3f4ccccd;   // 0.8
GPGPU-Sim PTX: 41 (potential) branch divergence @  PC=0x1ad0 (_1.ptx:1159) @!%p29 bra $Lt_10_53250;
GPGPU-Sim PTX:    immediate post dominator      @  PC=0x2040 (_1.ptx:1375) mov.f32 %f394, 0f3f4ccccd;   // 0.8
GPGPU-Sim PTX: 42 (potential) branch divergence @  PC=0x1b20 (_1.ptx:1170) @!%p30 bra $Lt_10_53762;
GPGPU-Sim PTX:    immediate post dominator      @  PC=0x1b40 (_1.ptx:1177) mov.f32 %f268, %f284;
GPGPU-Sim PTX: 43 (potential) branch divergence @  PC=0x1b48 (_1.ptx:1178) bra.uni $LDWendi___isnanf_192_1;
GPGPU-Sim PTX:    immediate post dominator      @  PC=0x2040 (_1.ptx:1375) mov.f32 %f394, 0f3f4ccccd;   // 0.8
GPGPU-Sim PTX: 44 (potential) branch divergence @  PC=0x1b60 (_1.ptx:1183) @!%p31 bra $Lt_10_59394;
GPGPU-Sim PTX:    immediate post dominator      @  PC=0x2040 (_1.ptx:1375) mov.f32 %f394, 0f3f4ccccd;   // 0.8
GPGPU-Sim PTX: 45 (potential) branch divergence @  PC=0x1b88 (_1.ptx:1188) @!%p32 bra $Lt_10_59394;
GPGPU-Sim PTX:    immediate post dominator      @  PC=0x2040 (_1.ptx:1375) mov.f32 %f394, 0f3f4ccccd;   // 0.8
GPGPU-Sim PTX: 46 (potential) branch divergence @  PC=0x1ba0 (_1.ptx:1192) bra.uni $LDWendi___isnanf_192_1;
GPGPU-Sim PTX:    immediate post dominator      @  PC=0x2040 (_1.ptx:1375) mov.f32 %f394, 0f3f4ccccd;   // 0.8
GPGPU-Sim PTX: 47 (potential) branch divergence @  PC=0x1bd8 (_1.ptx:1202) @%p33 bra $Lt_10_54530;
GPGPU-Sim PTX:    immediate post dominator      @  PC=0x1c20 (_1.ptx:1216) sub.s32 %r64, %r64, 127;
GPGPU-Sim PTX: 48 (potential) branch divergence @  PC=0x1c10 (_1.ptx:1211) bra.uni $Lt_10_54274;
GPGPU-Sim PTX:    immediate post dominator      @  PC=0x1c20 (_1.ptx:1216) sub.s32 %r64, %r64, 127;
GPGPU-Sim PTX: 49 (potential) branch divergence @  PC=0x1c58 (_1.ptx:1224) @!%p34 bra $Lt_10_54786;
GPGPU-Sim PTX:    immediate post dominator      @  PC=0x1c78 (_1.ptx:1232) mov.f32 %f302, 0fbf800000;   // -1
GPGPU-Sim PTX: 50 (potential) branch divergence @  PC=0x1eb0 (_1.ptx:1312) @%p35 bra $Lt_10_55298;
GPGPU-Sim PTX:    immediate post dominator      @  PC=0x1ed8 (_1.ptx:1321) mov.f32 %f367, %f365;
GPGPU-Sim PTX: 51 (potential) branch divergence @  PC=0x1f98 (_1.ptx:1346) @!%p38 bra $Lt_10_55810;
GPGPU-Sim PTX:    immediate post dominator      @  PC=0x1fa8 (_1.ptx:1351) mov.f32 %f284, %f386;
GPGPU-Sim PTX: 52 (potential) branch divergence @  PC=0x2018 (_1.ptx:1365) @%p39 bra $Lt_10_56322;
GPGPU-Sim PTX:    immediate post dominator      @  PC=0x2038 (_1.ptx:1372) mov.f32 %f268, %f284;
GPGPU-Sim PTX: 53 (potential) branch divergence @  PC=0x2158 (_1.ptx:1419) @%p40 bra $L_10_42242;
GPGPU-Sim PTX:    immediate post dominator      @  PC=0x2170 (_1.ptx:1424) sub.s32 %r86, %r24, 1;
GPGPU-Sim PTX: 54 (potential) branch divergence @  PC=0x2168 (_1.ptx:1421) @%p41 bra $L_10_41474;
GPGPU-Sim PTX:    immediate post dominator      @  PC=0x2170 (_1.ptx:1424) sub.s32 %r86, %r24, 1;
GPGPU-Sim PTX: 55 (potential) branch divergence @  PC=0x2190 (_1.ptx:1428) @%p42 bra $Lt_10_56834;
GPGPU-Sim PTX:    immediate post dominator      @  PC=0x2288 (_1.ptx:1464) ld.global.u32 %r92, [%rd4+0];
GPGPU-Sim PTX: 56 (potential) branch divergence @  PC=0x2280 (_1.ptx:1461) @%p43 bra $Lt_10_57346;
GPGPU-Sim PTX:    immediate post dominator      @  PC=0x2288 (_1.ptx:1464) ld.global.u32 %r92, [%rd4+0];
GPGPU-Sim PTX: ... end of reconvergence points for _Z6renderPjP4Nodejjff
GPGPU-Sim PTX: ... done pre-decoding instructions for '_Z6renderPjP4Nodejjff'.
GPGPU-Sim PTX: instruction assembly for function '_ZN4dim3C1Ejjj'...   done.
GPGPU-Sim PTX: finding reconvergence points for '_ZN4dim3C1Ejjj'...
GPGPU-Sim PTX: Finding dominators for '_ZN4dim3C1Ejjj'...
GPGPU-Sim PTX: Finding immediate dominators for '_ZN4dim3C1Ejjj'...
GPGPU-Sim PTX: Finding postdominators for '_ZN4dim3C1Ejjj'...
GPGPU-Sim PTX: Finding immediate postdominators for '_ZN4dim3C1Ejjj'...
GPGPU-Sim PTX: pre-decoding instructions for '_ZN4dim3C1Ejjj'...
GPGPU-Sim PTX: reconvergence points for _ZN4dim3C1Ejjj...
GPGPU-Sim PTX: ... end of reconvergence points for _ZN4dim3C1Ejjj
GPGPU-Sim PTX: ... done pre-decoding instructions for '_ZN4dim3C1Ejjj'.
GPGPU-Sim PTX: finished parsing EMBEDDED .ptx file _1.ptx
Adding _cuobjdump_1.ptx with cubin handle 1
GPGPU-Sim PTX: extracting embedded .ptx to temporary file "_ptx_UKdsR9"
Running: cat _ptx_UKdsR9 | sed 's/.version 1.5/.version 1.4/' | sed 's/, texmode_independent//' | sed 's/\(\.extern \.const\[1\] .b8 \w\+\)\[\]/\1\[1\]/' | sed 's/const\[.\]/const\[0\]/g' > _ptx2_uDJ7aW
GPGPU-Sim PTX: generating ptxinfo using "$CUDA_INSTALL_PATH/bin/ptxas --gpu-name=sm_20 -v _ptx2_uDJ7aW --output-file  /dev/null 2> _ptx_UKdsR9info"
GPGPU-Sim PTX: Kernel '_Z6renderPjP4Nodejjff' : regs=45, lmem=4, smem=0, cmem=180
GPGPU-Sim PTX: removing ptxinfo using "rm -f _ptx_UKdsR9 _ptx2_uDJ7aW _ptx_UKdsR9info"
GPGPU-Sim PTX: loading globals with explicit initializers... 
GPGPU-Sim PTX: finished loading globals (0 bytes total).
GPGPU-Sim PTX: loading constants with explicit initializers...  done.
GPGPU-Sim PTX: __cudaRegisterVar: hostVar = 0x632880; deviceAddress = MView; deviceName = MView
GPGPU-Sim PTX: __cudaRegisterVar: Registering const memory space of 48 bytes
GPGPU-Sim PTX registering constant MView (48 bytes) to name mapping
GPGPU-Sim PTX: __cudaRegisterVar: hostVar = 0x6328c0; deviceAddress = cnode; deviceName = cnode
GPGPU-Sim PTX: __cudaRegisterVar: Registering const memory space of 160 bytes
GPGPU-Sim PTX registering constant cnode (160 bytes) to name mapping
GPGPU-Sim PTX: cudaMemcpyToSymbol: symbol = 0x6328c0
GPGPU-Sim PTX: starting gpgpu_ptx_sim_memcpy_symbol with hostVar 0x0x6328c0
GPGPU-Sim PTX: gpgpu_ptx_sim_memcpy_symbol: Found PTX symbol w/ hostVar=0x6328c0
GPGPU-Sim PTX: gpgpu_ptx_sim_memcpy_symbol: copying const memory 160 bytes  to  symbol cnode+0 @0x100 ...
GPGPU-Sim PTX: cudaMemcpyToSymbol: symbol = 0x632880
GPGPU-Sim PTX: starting gpgpu_ptx_sim_memcpy_symbol with hostVar 0x0x632880
GPGPU-Sim PTX: gpgpu_ptx_sim_memcpy_symbol: Found PTX symbol w/ hostVar=0x632880
GPGPU-Sim PTX: gpgpu_ptx_sim_memcpy_symbol: copying const memory 48 bytes  to  symbol MView+0 @0x200 ...

GPGPU-Sim PTX: cudaLaunch for 0x0x40d033 (mode=performance simulation) on stream 0
GPGPU-Sim PTX: pushing kernel '_Z6renderPjP4Nodejjff' to stream 0, gridDim= (16,32,1) blockDim = (16,8,1) 
kernel '_Z6renderPjP4Nodejjff' transfer to GPU hardware scheduler
GPGPU-Sim uArch: Shader 1 bind to kernel 1 '_Z6renderPjP4Nodejjff'
GPGPU-Sim uArch: CTA/core = 5, limited by: regs
GPGPU-Sim uArch: core:  1, cta: 0 initialized @(1,0)
GPGPU-Sim uArch: Shader 2 bind to kernel 1 '_Z6renderPjP4Nodejjff'
GPGPU-Sim uArch: core:  2, cta: 0 initialized @(1,0)
GPGPU-Sim uArch: Shader 3 bind to kernel 1 '_Z6renderPjP4Nodejjff'
GPGPU-Sim uArch: core:  3, cta: 0 initialized @(1,0)
GPGPU-Sim uArch: Shader 4 bind to kernel 1 '_Z6renderPjP4Nodejjff'
GPGPU-Sim uArch: core:  4, cta: 0 initialized @(1,0)
GPGPU-Sim uArch: Shader 5 bind to kernel 1 '_Z6renderPjP4Nodejjff'
GPGPU-Sim uArch: core:  5, cta: 0 initialized @(1,0)
GPGPU-Sim uArch: Shader 6 bind to kernel 1 '_Z6renderPjP4Nodejjff'
GPGPU-Sim uArch: core:  6, cta: 0 initialized @(1,0)
GPGPU-Sim uArch: Shader 7 bind to kernel 1 '_Z6renderPjP4Nodejjff'
GPGPU-Sim uArch: core:  7, cta: 0 initialized @(1,0)
GPGPU-Sim uArch: Shader 8 bind to kernel 1 '_Z6renderPjP4Nodejjff'
GPGPU-Sim uArch: core:  8, cta: 0 initialized @(1,0)
GPGPU-Sim uArch: Shader 9 bind to kernel 1 '_Z6renderPjP4Nodejjff'
GPGPU-Sim uArch: core:  9, cta: 0 initialized @(1,0)
GPGPU-Sim uArch: Shader 10 bind to kernel 1 '_Z6renderPjP4Nodejjff'
GPGPU-Sim uArch: core: 10, cta: 0 initialized @(1,0)
GPGPU-Sim uArch: Shader 11 bind to kernel 1 '_Z6renderPjP4Nodejjff'
GPGPU-Sim uArch: core: 11, cta: 0 initialized @(1,0)
GPGPU-Sim uArch: Shader 12 bind to kernel 1 '_Z6renderPjP4Nodejjff'
GPGPU-Sim uArch: core: 12, cta: 0 initialized @(1,0)
GPGPU-Sim uArch: Shader 13 bind to kernel 1 '_Z6renderPjP4Nodejjff'
GPGPU-Sim uArch: core: 13, cta: 0 initialized @(1,0)
GPGPU-Sim uArch: Shader 14 bind to kernel 1 '_Z6renderPjP4Nodejjff'
GPGPU-Sim uArch: core: 14, cta: 0 initialized @(1,0)
GPGPU-Sim uArch: Shader 0 bind to kernel 1 '_Z6renderPjP4Nodejjff'
GPGPU-Sim uArch: core:  0, cta: 0 initialized @(1,0)
GPGPU-Sim uArch: core:  1, cta: 1 initialized @(2,0)
GPGPU-Sim uArch: core:  2, cta: 1 initialized @(2,0)
GPGPU-Sim uArch: core:  3, cta: 1 initialized @(2,0)
GPGPU-Sim uArch: core:  4, cta: 1 initialized @(2,0)
GPGPU-Sim uArch: core:  5, cta: 1 initialized @(2,0)
GPGPU-Sim uArch: core:  6, cta: 1 initialized @(2,0)
GPGPU-Sim uArch: core:  7, cta: 1 initialized @(2,0)
GPGPU-Sim uArch: core:  8, cta: 1 initialized @(2,0)
GPGPU-Sim uArch: core:  9, cta: 1 initialized @(2,0)
GPGPU-Sim uArch: core: 10, cta: 1 initialized @(2,0)
GPGPU-Sim uArch: core: 11, cta: 1 initialized @(2,0)
GPGPU-Sim uArch: core: 12, cta: 1 initialized @(2,0)
GPGPU-Sim uArch: core: 13, cta: 1 initialized @(2,0)
GPGPU-Sim uArch: core: 14, cta: 1 initialized @(2,0)
GPGPU-Sim uArch: core:  0, cta: 1 initialized @(2,0)
GPGPU-Sim uArch: core:  1, cta: 2 initialized @(3,0)
GPGPU-Sim uArch: core:  2, cta: 2 initialized @(3,0)
GPGPU-Sim uArch: core:  3, cta: 2 initialized @(3,0)
GPGPU-Sim uArch: core:  4, cta: 2 initialized @(3,0)
GPGPU-Sim uArch: core:  5, cta: 2 initialized @(3,0)
GPGPU-Sim uArch: core:  6, cta: 2 initialized @(3,0)
GPGPU-Sim uArch: core:  7, cta: 2 initialized @(3,0)
GPGPU-Sim uArch: core:  8, cta: 2 initialized @(3,0)
GPGPU-Sim uArch: core:  9, cta: 2 initialized @(3,0)
GPGPU-Sim uArch: core: 10, cta: 2 initialized @(3,0)
GPGPU-Sim uArch: core: 11, cta: 2 initialized @(3,0)
GPGPU-Sim uArch: core: 12, cta: 2 initialized @(3,0)
GPGPU-Sim uArch: core: 13, cta: 2 initialized @(3,0)
GPGPU-Sim uArch: core: 14, cta: 2 initialized @(3,0)
GPGPU-Sim uArch: core:  0, cta: 2 initialized @(3,0)
GPGPU-Sim uArch: core:  1, cta: 3 initialized @(4,0)
GPGPU-Sim uArch: core:  2, cta: 3 initialized @(4,0)
GPGPU-Sim uArch: core:  3, cta: 3 initialized @(4,0)
GPGPU-Sim uArch: core:  4, cta: 3 initialized @(4,0)
GPGPU-Sim uArch: core:  5, cta: 3 initialized @(4,0)
GPGPU-Sim uArch: core:  6, cta: 3 initialized @(4,0)
GPGPU-Sim uArch: core:  7, cta: 3 initialized @(4,0)
GPGPU-Sim uArch: core:  8, cta: 3 initialized @(4,0)
GPGPU-Sim uArch: core:  9, cta: 3 initialized @(4,0)
GPGPU-Sim uArch: core: 10, cta: 3 initialized @(4,0)
GPGPU-Sim uArch: core: 11, cta: 3 initialized @(4,0)
GPGPU-Sim uArch: core: 12, cta: 3 initialized @(4,0)
GPGPU-Sim uArch: core: 13, cta: 3 initialized @(4,0)
GPGPU-Sim uArch: core: 14, cta: 3 initialized @(4,0)
GPGPU-Sim uArch: core:  0, cta: 3 initialized @(4,0)
GPGPU-Sim uArch: core:  1, cta: 4 initialized @(5,0)
GPGPU-Sim uArch: core:  2, cta: 4 initialized @(5,0)
GPGPU-Sim uArch: core:  3, cta: 4 initialized @(5,0)
GPGPU-Sim uArch: core:  4, cta: 4 initialized @(5,0)
GPGPU-Sim uArch: core:  5, cta: 4 initialized @(5,0)
GPGPU-Sim uArch: core:  6, cta: 4 initialized @(5,0)
GPGPU-Sim uArch: core:  7, cta: 4 initialized @(5,0)
GPGPU-Sim uArch: core:  8, cta: 4 initialized @(5,0)
GPGPU-Sim uArch: core:  9, cta: 4 initialized @(5,0)
GPGPU-Sim uArch: core: 10, cta: 4 initialized @(5,0)
GPGPU-Sim uArch: core: 11, cta: 4 initialized @(5,0)
GPGPU-Sim uArch: core: 12, cta: 4 initialized @(5,0)
GPGPU-Sim uArch: core: 13, cta: 4 initialized @(5,0)
GPGPU-Sim uArch: core: 14, cta: 4 initialized @(5,0)
GPGPU-Sim uArch: core:  0, cta: 4 initialized @(5,0)
GPGPU-Sim uArch: cycles simulated: 500  inst.: 36032 (ipc=72.1) sim_rate=36032 (inst/sec) elapsed = 0:0:00:01 / Wed Apr 17 12:22:53 2019
GPGPU-Sim PTX: 100000 instructions simulated : ctaid=(7,0,0) tid=(15,1,0)
GPGPU-Sim uArch: cycles simulated: 3000  inst.: 142112 (ipc=47.4) sim_rate=71056 (inst/sec) elapsed = 0:0:00:02 / Wed Apr 17 12:22:54 2019
GPGPU-Sim PTX: 200000 instructions simulated : ctaid=(7,3,0) tid=(15,5,0)
GPGPU-Sim PTX: 300000 instructions simulated : ctaid=(2,0,0) tid=(15,1,0)
GPGPU-Sim uArch: cycles simulated: 5000  inst.: 301184 (ipc=60.2) sim_rate=100394 (inst/sec) elapsed = 0:0:00:03 / Wed Apr 17 12:22:55 2019
GPGPU-Sim PTX: 400000 instructions simulated : ctaid=(4,0,0) tid=(15,7,0)
GPGPU-Sim uArch: cycles simulated: 6000  inst.: 486400 (ipc=81.1) sim_rate=121600 (inst/sec) elapsed = 0:0:00:04 / Wed Apr 17 12:22:56 2019
GPGPU-Sim PTX: 500000 instructions simulated : ctaid=(14,1,0) tid=(15,5,0)
GPGPU-Sim PTX: 600000 instructions simulated : ctaid=(14,3,0) tid=(15,5,0)
GPGPU-Sim PTX: 700000 instructions simulated : ctaid=(7,4,0) tid=(15,1,0)
GPGPU-Sim uArch: cycles simulated: 7000  inst.: 732160 (ipc=104.6) sim_rate=146432 (inst/sec) elapsed = 0:0:00:05 / Wed Apr 17 12:22:57 2019
GPGPU-Sim PTX: 800000 instructions simulated : ctaid=(1,0,0) tid=(15,7,0)
GPGPU-Sim PTX: 900000 instructions simulated : ctaid=(5,1,0) tid=(15,3,0)
GPGPU-Sim uArch: cycles simulated: 8000  inst.: 926272 (ipc=115.8) sim_rate=154378 (inst/sec) elapsed = 0:0:00:06 / Wed Apr 17 12:22:58 2019
GPGPU-Sim PTX: 1000000 instructions simulated : ctaid=(4,2,0) tid=(15,7,0)
GPGPU-Sim PTX: 1100000 instructions simulated : ctaid=(13,2,0) tid=(15,7,0)
GPGPU-Sim PTX: 1200000 instructions simulated : ctaid=(4,2,0) tid=(15,5,0)
GPGPU-Sim uArch: cycles simulated: 9000  inst.: 1272192 (ipc=141.4) sim_rate=181741 (inst/sec) elapsed = 0:0:00:07 / Wed Apr 17 12:22:59 2019
GPGPU-Sim PTX: 1300000 instructions simulated : ctaid=(14,3,0) tid=(15,3,0)
GPGPU-Sim PTX: 1400000 instructions simulated : ctaid=(6,0,0) tid=(15,7,0)
GPGPU-Sim PTX: 1500000 instructions simulated : ctaid=(7,3,0) tid=(15,1,0)
GPGPU-Sim PTX: 1600000 instructions simulated : ctaid=(13,3,0) tid=(15,1,0)
GPGPU-Sim PTX: 1700000 instructions simulated : ctaid=(0,1,0) tid=(15,3,0)
GPGPU-Sim PTX: 1800000 instructions simulated : ctaid=(13,1,0) tid=(15,1,0)
GPGPU-Sim uArch: cycles simulated: 10000  inst.: 1799520 (ipc=180.0) sim_rate=224940 (inst/sec) elapsed = 0:0:00:08 / Wed Apr 17 12:23:00 2019
GPGPU-Sim PTX: 1900000 instructions simulated : ctaid=(8,2,0) tid=(15,5,0)
GPGPU-Sim PTX: 2000000 instructions simulated : ctaid=(12,0,0) tid=(15,7,0)
GPGPU-Sim PTX: 2100000 instructions simulated : ctaid=(8,1,0) tid=(15,5,0)
GPGPU-Sim PTX: 2200000 instructions simulated : ctaid=(3,2,0) tid=(15,5,0)
GPGPU-Sim uArch: cycles simulated: 10500  inst.: 2199360 (ipc=209.5) sim_rate=244373 (inst/sec) elapsed = 0:0:00:09 / Wed Apr 17 12:23:01 2019
GPGPU-Sim PTX: 2300000 instructions simulated : ctaid=(0,1,0) tid=(15,5,0)
GPGPU-Sim PTX: 2400000 instructions simulated : ctaid=(1,4,0) tid=(15,5,0)
GPGPU-Sim PTX: 2500000 instructions simulated : ctaid=(4,3,0) tid=(15,3,0)
GPGPU-Sim uArch: cycles simulated: 11000  inst.: 2521728 (ipc=229.2) sim_rate=252172 (inst/sec) elapsed = 0:0:00:10 / Wed Apr 17 12:23:02 2019
GPGPU-Sim PTX: 2600000 instructions simulated : ctaid=(5,3,0) tid=(15,5,0)
GPGPU-Sim PTX: 2700000 instructions simulated : ctaid=(11,0,0) tid=(15,1,0)
GPGPU-Sim PTX: 2800000 instructions simulated : ctaid=(10,0,0) tid=(15,7,0)
GPGPU-Sim PTX: 2900000 instructions simulated : ctaid=(13,2,0) tid=(15,3,0)
GPGPU-Sim uArch: cycles simulated: 11500  inst.: 2899488 (ipc=252.1) sim_rate=263589 (inst/sec) elapsed = 0:0:00:11 / Wed Apr 17 12:23:03 2019
GPGPU-Sim PTX: 3000000 instructions simulated : ctaid=(6,1,0) tid=(15,5,0)
GPGPU-Sim PTX: 3100000 instructions simulated : ctaid=(3,4,0) tid=(15,1,0)
GPGPU-Sim PTX: 3200000 instructions simulated : ctaid=(5,1,0) tid=(15,3,0)
GPGPU-Sim uArch: cycles simulated: 12000  inst.: 3198432 (ipc=266.5) sim_rate=266536 (inst/sec) elapsed = 0:0:00:12 / Wed Apr 17 12:23:04 2019
GPGPU-Sim PTX: 3300000 instructions simulated : ctaid=(11,3,0) tid=(15,7,0)
GPGPU-Sim PTX: 3400000 instructions simulated : ctaid=(0,4,0) tid=(15,7,0)
GPGPU-Sim uArch: cycles simulated: 12500  inst.: 3382176 (ipc=270.6) sim_rate=260167 (inst/sec) elapsed = 0:0:00:13 / Wed Apr 17 12:23:05 2019
GPGPU-Sim PTX: 3500000 instructions simulated : ctaid=(11,0,0) tid=(15,3,0)
GPGPU-Sim PTX: 3600000 instructions simulated : ctaid=(14,0,0) tid=(15,3,0)
GPGPU-Sim PTX: 3700000 instructions simulated : ctaid=(10,3,0) tid=(15,5,0)
GPGPU-Sim uArch: cycles simulated: 13500  inst.: 3667936 (ipc=271.7) sim_rate=261995 (inst/sec) elapsed = 0:0:00:14 / Wed Apr 17 12:23:06 2019
GPGPU-Sim PTX: 3800000 instructions simulated : ctaid=(2,0,0) tid=(15,7,0)
GPGPU-Sim PTX: 3900000 instructions simulated : ctaid=(4,2,0) tid=(15,1,0)
GPGPU-Sim uArch: cycles simulated: 14000  inst.: 3883104 (ipc=277.4) sim_rate=258873 (inst/sec) elapsed = 0:0:00:15 / Wed Apr 17 12:23:07 2019
GPGPU-Sim PTX: 4000000 instructions simulated : ctaid=(7,4,0) tid=(15,3,0)
GPGPU-Sim PTX: 4100000 instructions simulated : ctaid=(3,2,0) tid=(15,3,0)
GPGPU-Sim PTX: 4200000 instructions simulated : ctaid=(1,4,0) tid=(15,5,0)
GPGPU-Sim PTX: 4300000 instructions simulated : ctaid=(11,2,0) tid=(15,7,0)
GPGPU-Sim PTX: 4400000 instructions simulated : ctaid=(1,4,0) tid=(15,1,0)
GPGPU-Sim uArch: cycles simulated: 15500  inst.: 4359968 (ipc=281.3) sim_rate=272498 (inst/sec) elapsed = 0:0:00:16 / Wed Apr 17 12:23:08 2019
GPGPU-Sim PTX: 4500000 instructions simulated : ctaid=(8,3,0) tid=(15,3,0)
GPGPU-Sim PTX: 4600000 instructions simulated : ctaid=(3,2,0) tid=(12,0,0)
GPGPU-Sim PTX: 4700000 instructions simulated : ctaid=(8,0,0) tid=(6,2,0)
GPGPU-Sim uArch: cycles simulated: 16000  inst.: 4590336 (ipc=286.9) sim_rate=270019 (inst/sec) elapsed = 0:0:00:17 / Wed Apr 17 12:23:09 2019
GPGPU-Sim PTX: 4800000 instructions simulated : ctaid=(7,0,0) tid=(15,2,0)
GPGPU-Sim PTX: 4900000 instructions simulated : ctaid=(8,2,0) tid=(15,2,0)
GPGPU-Sim PTX: 5000000 instructions simulated : ctaid=(1,0,0) tid=(15,0,0)
GPGPU-Sim PTX: 5100000 instructions simulated : ctaid=(6,3,0) tid=(15,2,0)
GPGPU-Sim PTX: 5200000 instructions simulated : ctaid=(2,0,0) tid=(15,4,0)
GPGPU-Sim PTX: 5300000 instructions simulated : ctaid=(6,3,0) tid=(15,0,0)
GPGPU-Sim PTX: 5400000 instructions simulated : ctaid=(8,2,0) tid=(8,2,0)
GPGPU-Sim PTX: 5500000 instructions simulated : ctaid=(3,3,0) tid=(9,0,0)
GPGPU-Sim uArch: cycles simulated: 17000  inst.: 5380171 (ipc=316.5) sim_rate=298898 (inst/sec) elapsed = 0:0:00:18 / Wed Apr 17 12:23:10 2019
GPGPU-Sim PTX: 5600000 instructions simulated : ctaid=(0,4,0) tid=(3,1,0)
GPGPU-Sim PTX: 5700000 instructions simulated : ctaid=(8,0,0) tid=(5,7,0)
GPGPU-Sim PTX: 5800000 instructions simulated : ctaid=(2,3,0) tid=(4,3,0)
GPGPU-Sim uArch: cycles simulated: 17500  inst.: 5708264 (ipc=326.2) sim_rate=300434 (inst/sec) elapsed = 0:0:00:19 / Wed Apr 17 12:23:11 2019
GPGPU-Sim PTX: 5900000 instructions simulated : ctaid=(12,1,0) tid=(7,5,0)
GPGPU-Sim PTX: 6000000 instructions simulated : ctaid=(14,3,0) tid=(15,6,0)
GPGPU-Sim PTX: 6100000 instructions simulated : ctaid=(10,4,0) tid=(11,1,0)
GPGPU-Sim uArch: cycles simulated: 18000  inst.: 5948100 (ipc=330.4) sim_rate=297405 (inst/sec) elapsed = 0:0:00:20 / Wed Apr 17 12:23:12 2019
GPGPU-Sim PTX: 6200000 instructions simulated : ctaid=(2,1,0) tid=(11,3,0)
GPGPU-Sim PTX: 6300000 instructions simulated : ctaid=(11,2,0) tid=(11,1,0)
GPGPU-Sim PTX: 6400000 instructions simulated : ctaid=(8,2,0) tid=(11,1,0)
GPGPU-Sim PTX: 6500000 instructions simulated : ctaid=(14,2,0) tid=(6,2,0)
GPGPU-Sim uArch: cycles simulated: 20000  inst.: 6354756 (ipc=317.7) sim_rate=302607 (inst/sec) elapsed = 0:0:00:21 / Wed Apr 17 12:23:13 2019
GPGPU-Sim PTX: 6600000 instructions simulated : ctaid=(1,4,0) tid=(11,3,0)
GPGPU-Sim PTX: 6700000 instructions simulated : ctaid=(11,3,0) tid=(11,5,0)
GPGPU-Sim PTX: 6800000 instructions simulated : ctaid=(3,0,0) tid=(11,1,0)
GPGPU-Sim PTX: 6900000 instructions simulated : ctaid=(14,0,0) tid=(11,3,0)
GPGPU-Sim uArch: cycles simulated: 21000  inst.: 6796644 (ipc=323.6) sim_rate=308938 (inst/sec) elapsed = 0:0:00:22 / Wed Apr 17 12:23:14 2019
GPGPU-Sim PTX: 7000000 instructions simulated : ctaid=(7,4,0) tid=(11,1,0)
GPGPU-Sim PTX: 7100000 instructions simulated : ctaid=(13,1,0) tid=(11,7,0)
GPGPU-Sim uArch: cycles simulated: 21500  inst.: 6964260 (ipc=323.9) sim_rate=302793 (inst/sec) elapsed = 0:0:00:23 / Wed Apr 17 12:23:15 2019
GPGPU-Sim PTX: 7200000 instructions simulated : ctaid=(9,2,0) tid=(11,5,0)
GPGPU-Sim PTX: 7300000 instructions simulated : ctaid=(4,2,0) tid=(11,5,0)
GPGPU-Sim PTX: 7400000 instructions simulated : ctaid=(4,2,0) tid=(11,3,0)
GPGPU-Sim PTX: 7500000 instructions simulated : ctaid=(0,2,0) tid=(11,3,0)
GPGPU-Sim PTX: 7600000 instructions simulated : ctaid=(9,0,0) tid=(11,1,0)
GPGPU-Sim uArch: cycles simulated: 23000  inst.: 7467972 (ipc=324.7) sim_rate=311165 (inst/sec) elapsed = 0:0:00:24 / Wed Apr 17 12:23:16 2019
GPGPU-Sim PTX: 7700000 instructions simulated : ctaid=(10,3,0) tid=(11,5,0)
GPGPU-Sim PTX: 7800000 instructions simulated : ctaid=(9,3,0) tid=(11,3,0)
GPGPU-Sim PTX: 7900000 instructions simulated : ctaid=(13,1,0) tid=(11,3,0)
GPGPU-Sim PTX: 8000000 instructions simulated : ctaid=(12,0,0) tid=(11,3,0)
GPGPU-Sim uArch: cycles simulated: 24000  inst.: 7829156 (ipc=326.2) sim_rate=313166 (inst/sec) elapsed = 0:0:00:25 / Wed Apr 17 12:23:17 2019
GPGPU-Sim PTX: 8100000 instructions simulated : ctaid=(0,1,0) tid=(11,3,0)
GPGPU-Sim PTX: 8200000 instructions simulated : ctaid=(1,0,0) tid=(11,5,0)
GPGPU-Sim PTX: 8300000 instructions simulated : ctaid=(11,3,0) tid=(11,5,0)
GPGPU-Sim PTX: 8400000 instructions simulated : ctaid=(8,3,0) tid=(11,1,0)
GPGPU-Sim PTX: 8500000 instructions simulated : ctaid=(6,3,0) tid=(11,1,0)
GPGPU-Sim uArch: cycles simulated: 25000  inst.: 8293700 (ipc=331.7) sim_rate=318988 (inst/sec) elapsed = 0:0:00:26 / Wed Apr 17 12:23:18 2019
GPGPU-Sim PTX: 8600000 instructions simulated : ctaid=(11,1,0) tid=(11,5,0)
GPGPU-Sim PTX: 8700000 instructions simulated : ctaid=(2,0,0) tid=(15,4,0)
GPGPU-Sim PTX: 8800000 instructions simulated : ctaid=(5,1,0) tid=(13,6,0)
GPGPU-Sim PTX: 8900000 instructions simulated : ctaid=(15,1,0) tid=(11,1,0)
GPGPU-Sim PTX: 9000000 instructions simulated : ctaid=(5,0,0) tid=(0,7,0)
GPGPU-Sim PTX: 9100000 instructions simulated : ctaid=(14,3,0) tid=(14,0,0)
GPGPU-Sim PTX: 9200000 instructions simulated : ctaid=(12,1,0) tid=(5,2,0)
GPGPU-Sim PTX: 9300000 instructions simulated : ctaid=(1,2,0) tid=(7,7,0)
GPGPU-Sim uArch: cycles simulated: 26000  inst.: 9084847 (ipc=349.4) sim_rate=336475 (inst/sec) elapsed = 0:0:00:27 / Wed Apr 17 12:23:19 2019
GPGPU-Sim PTX: 9400000 instructions simulated : ctaid=(6,0,0) tid=(9,5,0)
GPGPU-Sim PTX: 9500000 instructions simulated : ctaid=(10,4,0) tid=(10,4,0)
GPGPU-Sim PTX: 9600000 instructions simulated : ctaid=(0,4,0) tid=(10,0,0)
GPGPU-Sim PTX: 9700000 instructions simulated : ctaid=(6,0,0) tid=(8,0,0)
GPGPU-Sim uArch: cycles simulated: 26500  inst.: 9481321 (ipc=357.8) sim_rate=338618 (inst/sec) elapsed = 0:0:00:28 / Wed Apr 17 12:23:20 2019
GPGPU-Sim PTX: 9800000 instructions simulated : ctaid=(5,0,0) tid=(5,2,0)
GPGPU-Sim PTX: 9900000 instructions simulated : ctaid=(0,3,0) tid=(15,7,0)
GPGPU-Sim PTX: 10000000 instructions simulated : ctaid=(4,4,0) tid=(4,2,0)
GPGPU-Sim uArch: cycles simulated: 27000  inst.: 9748445 (ipc=361.1) sim_rate=336153 (inst/sec) elapsed = 0:0:00:29 / Wed Apr 17 12:23:21 2019
GPGPU-Sim PTX: 10100000 instructions simulated : ctaid=(13,2,0) tid=(13,1,0)
GPGPU-Sim PTX: 10200000 instructions simulated : ctaid=(7,3,0) tid=(13,2,0)
GPGPU-Sim PTX: 10300000 instructions simulated : ctaid=(10,1,0) tid=(14,6,0)
GPGPU-Sim PTX: 10400000 instructions simulated : ctaid=(4,0,0) tid=(11,3,0)
GPGPU-Sim uArch: cycles simulated: 28500  inst.: 10139780 (ipc=355.8) sim_rate=337992 (inst/sec) elapsed = 0:0:00:30 / Wed Apr 17 12:23:22 2019
GPGPU-Sim uArch: Shader 0 finished CTA #1 (28531,0), 4 CTAs running
GPGPU-Sim uArch: core:  0, cta: 1 initialized @(28532,0)
GPGPU-Sim uArch: Shader 14 finished CTA #0 (28533,0), 4 CTAs running
GPGPU-Sim uArch: core: 14, cta: 0 initialized @(28534,0)
GPGPU-Sim uArch: Shader 5 finished CTA #2 (28551,0), 4 CTAs running
GPGPU-Sim uArch: core:  5, cta: 2 initialized @(28552,0)
GPGPU-Sim uArch: Shader 0 finished CTA #0 (28585,0), 4 CTAs running
GPGPU-Sim uArch: core:  0, cta: 0 initialized @(28586,0)
GPGPU-Sim uArch: Shader 1 finished CTA #1 (28589,0), 4 CTAs running
GPGPU-Sim uArch: core:  1, cta: 1 initialized @(28590,0)
GPGPU-Sim uArch: Shader 0 finished CTA #2 (28609,0), 4 CTAs running
GPGPU-Sim uArch: core:  0, cta: 2 initialized @(28610,0)
GPGPU-Sim uArch: Shader 0 finished CTA #3 (28618,0), 4 CTAs running
GPGPU-Sim uArch: core:  0, cta: 3 initialized @(28619,0)
GPGPU-Sim uArch: Shader 2 finished CTA #1 (28627,0), 4 CTAs running
GPGPU-Sim uArch: core:  2, cta: 1 initialized @(28628,0)
GPGPU-Sim uArch: Shader 0 finished CTA #4 (28633,0), 4 CTAs running
GPGPU-Sim uArch: core:  0, cta: 4 initialized @(28634,0)
GPGPU-Sim uArch: Shader 2 finished CTA #2 (28635,0), 4 CTAs running
GPGPU-Sim uArch: core:  2, cta: 2 initialized @(28636,0)
GPGPU-Sim uArch: Shader 1 finished CTA #0 (28653,0), 4 CTAs running
GPGPU-Sim uArch: core:  1, cta: 0 initialized @(28654,0)
GPGPU-Sim uArch: Shader 5 finished CTA #3 (28662,0), 4 CTAs running
GPGPU-Sim uArch: core:  5, cta: 3 initialized @(28663,0)
GPGPU-Sim uArch: Shader 8 finished CTA #3 (28673,0), 4 CTAs running
GPGPU-Sim uArch: core:  8, cta: 3 initialized @(28674,0)
GPGPU-Sim uArch: Shader 1 finished CTA #3 (28675,0), 4 CTAs running
GPGPU-Sim uArch: core:  1, cta: 3 initialized @(28676,0)
GPGPU-Sim uArch: Shader 4 finished CTA #2 (28677,0), 4 CTAs running
GPGPU-Sim uArch: core:  4, cta: 2 initialized @(28678,0)
GPGPU-Sim uArch: Shader 2 finished CTA #0 (28681,0), 4 CTAs running
GPGPU-Sim uArch: core:  2, cta: 0 initialized @(28682,0)
GPGPU-Sim uArch: Shader 1 finished CTA #2 (28693,0), 4 CTAs running
GPGPU-Sim uArch: core:  1, cta: 2 initialized @(28694,0)
GPGPU-Sim uArch: Shader 5 finished CTA #4 (28700,0), 4 CTAs running
GPGPU-Sim uArch: core:  5, cta: 4 initialized @(28701,0)
GPGPU-Sim uArch: Shader 1 finished CTA #4 (28701,0), 4 CTAs running
GPGPU-Sim uArch: core:  1, cta: 4 initialized @(28702,0)
GPGPU-Sim uArch: Shader 8 finished CTA #2 (28709,0), 4 CTAs running
GPGPU-Sim uArch: core:  8, cta: 2 initialized @(28710,0)
GPGPU-Sim uArch: Shader 2 finished CTA #3 (28725,0), 4 CTAs running
GPGPU-Sim uArch: core:  2, cta: 3 initialized @(28726,0)
GPGPU-Sim uArch: Shader 2 finished CTA #4 (28737,0), 4 CTAs running
GPGPU-Sim uArch: Shader 7 finished CTA #3 (28737,0), 4 CTAs running
GPGPU-Sim uArch: core:  7, cta: 3 initialized @(28738,0)
GPGPU-Sim uArch: core:  2, cta: 4 initialized @(28738,0)
GPGPU-Sim uArch: Shader 8 finished CTA #4 (28745,0), 4 CTAs running
GPGPU-Sim uArch: core:  8, cta: 4 initialized @(28746,0)
GPGPU-Sim uArch: Shader 9 finished CTA #3 (28757,0), 4 CTAs running
GPGPU-Sim uArch: core:  9, cta: 3 initialized @(28758,0)
GPGPU-Sim uArch: Shader 4 finished CTA #1 (28759,0), 4 CTAs running
GPGPU-Sim uArch: core:  4, cta: 1 initialized @(28760,0)
GPGPU-Sim uArch: Shader 3 finished CTA #0 (28767,0), 4 CTAs running
GPGPU-Sim uArch: core:  3, cta: 0 initialized @(28768,0)
GPGPU-Sim uArch: Shader 7 finished CTA #4 (28780,0), 4 CTAs running
GPGPU-Sim uArch: core:  7, cta: 4 initialized @(28781,0)
GPGPU-Sim uArch: Shader 4 finished CTA #3 (28786,0), 4 CTAs running
GPGPU-Sim uArch: core:  4, cta: 3 initialized @(28787,0)
GPGPU-Sim uArch: Shader 6 finished CTA #2 (28787,0), 4 CTAs running
GPGPU-Sim uArch: core:  6, cta: 2 initialized @(28788,0)
GPGPU-Sim uArch: Shader 9 finished CTA #4 (28789,0), 4 CTAs running
GPGPU-Sim uArch: core:  9, cta: 4 initialized @(28790,0)
GPGPU-Sim uArch: Shader 3 finished CTA #1 (28805,0), 4 CTAs running
GPGPU-Sim uArch: core:  3, cta: 1 initialized @(28806,0)
GPGPU-Sim uArch: Shader 6 finished CTA #3 (28809,0), 4 CTAs running
GPGPU-Sim uArch: core:  6, cta: 3 initialized @(28810,0)
GPGPU-Sim uArch: Shader 6 finished CTA #4 (28817,0), 4 CTAs running
GPGPU-Sim uArch: core:  6, cta: 4 initialized @(28818,0)
GPGPU-Sim PTX: 10500000 instructions simulated : ctaid=(12,5,0) tid=(4,4,0)
GPGPU-Sim uArch: Shader 4 finished CTA #4 (28824,0), 4 CTAs running
GPGPU-Sim uArch: core:  4, cta: 4 initialized @(28825,0)
GPGPU-Sim uArch: Shader 3 finished CTA #2 (28837,0), 4 CTAs running
GPGPU-Sim uArch: core:  3, cta: 2 initialized @(28838,0)
GPGPU-Sim uArch: Shader 3 finished CTA #3 (28853,0), 4 CTAs running
GPGPU-Sim uArch: core:  3, cta: 3 initialized @(28854,0)
GPGPU-Sim uArch: Shader 3 finished CTA #4 (28861,0), 4 CTAs running
GPGPU-Sim uArch: core:  3, cta: 4 initialized @(28862,0)
GPGPU-Sim uArch: Shader 10 finished CTA #4 (28945,0), 4 CTAs running
GPGPU-Sim uArch: core: 10, cta: 4 initialized @(28946,0)
GPGPU-Sim uArch: cycles simulated: 29000  inst.: 10289074 (ipc=354.8) sim_rate=331905 (inst/sec) elapsed = 0:0:00:31 / Wed Apr 17 12:23:23 2019
GPGPU-Sim PTX: 10600000 instructions simulated : ctaid=(9,5,0) tid=(14,0,0)
GPGPU-Sim PTX: 10700000 instructions simulated : ctaid=(8,3,0) tid=(11,6,0)
GPGPU-Sim PTX: 10800000 instructions simulated : ctaid=(6,0,0) tid=(3,0,0)
GPGPU-Sim uArch: cycles simulated: 30000  inst.: 10603012 (ipc=353.4) sim_rate=331344 (inst/sec) elapsed = 0:0:00:32 / Wed Apr 17 12:23:24 2019
GPGPU-Sim PTX: 10900000 instructions simulated : ctaid=(10,6,0) tid=(14,2,0)
GPGPU-Sim PTX: 11000000 instructions simulated : ctaid=(8,6,0) tid=(1,5,0)
GPGPU-Sim PTX: 11100000 instructions simulated : ctaid=(7,4,0) tid=(12,0,0)
GPGPU-Sim uArch: cycles simulated: 30500  inst.: 10814572 (ipc=354.6) sim_rate=327714 (inst/sec) elapsed = 0:0:00:33 / Wed Apr 17 12:23:25 2019
GPGPU-Sim PTX: 11200000 instructions simulated : ctaid=(8,1,0) tid=(1,0,0)
GPGPU-Sim PTX: 11300000 instructions simulated : ctaid=(12,5,0) tid=(7,6,0)
GPGPU-Sim uArch: cycles simulated: 31000  inst.: 11039757 (ipc=356.1) sim_rate=324698 (inst/sec) elapsed = 0:0:00:34 / Wed Apr 17 12:23:26 2019
GPGPU-Sim PTX: 11400000 instructions simulated : ctaid=(8,4,0) tid=(2,1,0)
GPGPU-Sim PTX: 11500000 instructions simulated : ctaid=(9,6,0) tid=(15,1,0)
GPGPU-Sim PTX: 11600000 instructions simulated : ctaid=(7,6,0) tid=(9,7,0)
GPGPU-Sim PTX: 11700000 instructions simulated : ctaid=(12,5,0) tid=(0,2,0)
GPGPU-Sim PTX: 11800000 instructions simulated : ctaid=(9,3,0) tid=(13,1,0)
GPGPU-Sim uArch: cycles simulated: 32000  inst.: 11582403 (ipc=362.0) sim_rate=330925 (inst/sec) elapsed = 0:0:00:35 / Wed Apr 17 12:23:27 2019
GPGPU-Sim PTX: 11900000 instructions simulated : ctaid=(9,5,0) tid=(13,6,0)
GPGPU-Sim PTX: 12000000 instructions simulated : ctaid=(15,5,0) tid=(13,6,0)
GPGPU-Sim PTX: 12100000 instructions simulated : ctaid=(7,6,0) tid=(15,1,0)
GPGPU-Sim uArch: Shader 7 finished CTA #2 (32495,0), 4 CTAs running
GPGPU-Sim uArch: core:  7, cta: 2 initialized @(32496,0)
GPGPU-Sim uArch: cycles simulated: 32500  inst.: 11874318 (ipc=365.4) sim_rate=329842 (inst/sec) elapsed = 0:0:00:36 / Wed Apr 17 12:23:28 2019
GPGPU-Sim PTX: 12200000 instructions simulated : ctaid=(8,4,0) tid=(12,5,0)
GPGPU-Sim PTX: 12300000 instructions simulated : ctaid=(14,5,0) tid=(15,2,0)
GPGPU-Sim PTX: 12400000 instructions simulated : ctaid=(15,6,0) tid=(13,1,0)
GPGPU-Sim PTX: 12500000 instructions simulated : ctaid=(15,5,0) tid=(6,3,0)
GPGPU-Sim uArch: cycles simulated: 33000  inst.: 12181706 (ipc=369.1) sim_rate=329235 (inst/sec) elapsed = 0:0:00:37 / Wed Apr 17 12:23:29 2019
GPGPU-Sim PTX: 12600000 instructions simulated : ctaid=(4,5,0) tid=(7,3,0)
GPGPU-Sim uArch: Shader 14 finished CTA #2 (33299,0), 4 CTAs running
GPGPU-Sim uArch: core: 14, cta: 2 initialized @(33300,0)
GPGPU-Sim PTX: 12700000 instructions simulated : ctaid=(9,5,0) tid=(13,6,0)
GPGPU-Sim PTX: 12800000 instructions simulated : ctaid=(14,6,0) tid=(8,4,0)
GPGPU-Sim PTX: 12900000 instructions simulated : ctaid=(10,5,0) tid=(0,3,0)
GPGPU-Sim PTX: 13000000 instructions simulated : ctaid=(3,6,0) tid=(12,6,0)
GPGPU-Sim PTX: 13100000 instructions simulated : ctaid=(8,6,0) tid=(12,2,0)
GPGPU-Sim uArch: cycles simulated: 34000  inst.: 12755118 (ipc=375.2) sim_rate=335661 (inst/sec) elapsed = 0:0:00:38 / Wed Apr 17 12:23:30 2019
GPGPU-Sim PTX: 13200000 instructions simulated : ctaid=(8,0,0) tid=(8,3,0)
GPGPU-Sim PTX: 13300000 instructions simulated : ctaid=(8,3,0) tid=(13,3,0)
GPGPU-Sim uArch: cycles simulated: 34500  inst.: 13021291 (ipc=377.4) sim_rate=333879 (inst/sec) elapsed = 0:0:00:39 / Wed Apr 17 12:23:31 2019
GPGPU-Sim PTX: 13400000 instructions simulated : ctaid=(1,6,0) tid=(2,2,0)
GPGPU-Sim PTX: 13500000 instructions simulated : ctaid=(1,7,0) tid=(15,4,0)
GPGPU-Sim PTX: 13600000 instructions simulated : ctaid=(5,5,0) tid=(1,1,0)
GPGPU-Sim uArch: cycles simulated: 35000  inst.: 13281066 (ipc=379.5) sim_rate=332026 (inst/sec) elapsed = 0:0:00:40 / Wed Apr 17 12:23:32 2019
GPGPU-Sim PTX: 13700000 instructions simulated : ctaid=(8,5,0) tid=(9,7,0)
GPGPU-Sim PTX: 13800000 instructions simulated : ctaid=(9,4,0) tid=(9,3,0)
GPGPU-Sim PTX: 13900000 instructions simulated : ctaid=(15,6,0) tid=(13,3,0)
GPGPU-Sim PTX: 14000000 instructions simulated : ctaid=(10,0,0) tid=(5,0,0)
GPGPU-Sim PTX: 14100000 instructions simulated : ctaid=(10,6,0) tid=(5,6,0)
GPGPU-Sim PTX: 14200000 instructions simulated : ctaid=(9,1,0) tid=(6,6,0)
GPGPU-Sim uArch: cycles simulated: 36000  inst.: 13830731 (ipc=384.2) sim_rate=337334 (inst/sec) elapsed = 0:0:00:41 / Wed Apr 17 12:23:33 2019
GPGPU-Sim PTX: 14300000 instructions simulated : ctaid=(6,2,0) tid=(5,1,0)
GPGPU-Sim PTX: 14400000 instructions simulated : ctaid=(8,6,0) tid=(15,7,0)
GPGPU-Sim PTX: 14500000 instructions simulated : ctaid=(2,7,0) tid=(1,1,0)
GPGPU-Sim uArch: cycles simulated: 36500  inst.: 14110737 (ipc=386.6) sim_rate=335969 (inst/sec) elapsed = 0:0:00:42 / Wed Apr 17 12:23:34 2019
GPGPU-Sim PTX: 14600000 instructions simulated : ctaid=(12,6,0) tid=(15,7,0)
GPGPU-Sim PTX: 14700000 instructions simulated : ctaid=(2,5,0) tid=(0,6,0)
GPGPU-Sim PTX: 14800000 instructions simulated : ctaid=(7,6,0) tid=(8,4,0)
GPGPU-Sim uArch: cycles simulated: 37000  inst.: 14424087 (ipc=389.8) sim_rate=335443 (inst/sec) elapsed = 0:0:00:43 / Wed Apr 17 12:23:35 2019
GPGPU-Sim PTX: 14900000 instructions simulated : ctaid=(10,6,0) tid=(4,2,0)
GPGPU-Sim PTX: 15000000 instructions simulated : ctaid=(8,0,0) tid=(0,4,0)
GPGPU-Sim PTX: 15100000 instructions simulated : ctaid=(14,5,0) tid=(2,4,0)
GPGPU-Sim PTX: 15200000 instructions simulated : ctaid=(4,6,0) tid=(0,4,0)
GPGPU-Sim PTX: 15300000 instructions simulated : ctaid=(8,5,0) tid=(0,7,0)
GPGPU-Sim PTX: 15400000 instructions simulated : ctaid=(7,1,0) tid=(1,7,0)
GPGPU-Sim uArch: Shader 14 finished CTA #3 (37957,0), 4 CTAs running
GPGPU-Sim uArch: core: 14, cta: 3 initialized @(37958,0)
GPGPU-Sim uArch: cycles simulated: 38000  inst.: 15013240 (ipc=395.1) sim_rate=341210 (inst/sec) elapsed = 0:0:00:44 / Wed Apr 17 12:23:36 2019
GPGPU-Sim PTX: 15500000 instructions simulated : ctaid=(2,5,0) tid=(5,5,0)
GPGPU-Sim PTX: 15600000 instructions simulated : ctaid=(0,7,0) tid=(2,0,0)
GPGPU-Sim uArch: cycles simulated: 38500  inst.: 15256572 (ipc=396.3) sim_rate=339034 (inst/sec) elapsed = 0:0:00:45 / Wed Apr 17 12:23:37 2019
GPGPU-Sim PTX: 15700000 instructions simulated : ctaid=(14,4,0) tid=(15,6,0)
GPGPU-Sim PTX: 15800000 instructions simulated : ctaid=(7,2,0) tid=(8,3,0)
GPGPU-Sim PTX: 15900000 instructions simulated : ctaid=(5,0,0) tid=(10,0,0)
GPGPU-Sim PTX: 16000000 instructions simulated : ctaid=(3,5,0) tid=(8,4,0)
GPGPU-Sim PTX: 16100000 instructions simulated : ctaid=(3,7,0) tid=(8,0,0)
GPGPU-Sim uArch: cycles simulated: 39500  inst.: 15667183 (ipc=396.6) sim_rate=340590 (inst/sec) elapsed = 0:0:00:46 / Wed Apr 17 12:23:38 2019
GPGPU-Sim uArch: Shader 13 finished CTA #2 (39594,0), 4 CTAs running
GPGPU-Sim uArch: core: 13, cta: 2 initialized @(39595,0)
GPGPU-Sim PTX: 16200000 instructions simulated : ctaid=(1,7,0) tid=(13,5,0)
GPGPU-Sim PTX: 16300000 instructions simulated : ctaid=(14,6,0) tid=(11,6,0)
GPGPU-Sim uArch: cycles simulated: 40000  inst.: 15903320 (ipc=397.6) sim_rate=338368 (inst/sec) elapsed = 0:0:00:47 / Wed Apr 17 12:23:39 2019
GPGPU-Sim PTX: 16400000 instructions simulated : ctaid=(9,6,0) tid=(3,4,0)
GPGPU-Sim PTX: 16500000 instructions simulated : ctaid=(4,6,0) tid=(11,2,0)
GPGPU-Sim PTX: 16600000 instructions simulated : ctaid=(5,0,0) tid=(11,7,0)
GPGPU-Sim PTX: 16700000 instructions simulated : ctaid=(1,6,0) tid=(9,4,0)
GPGPU-Sim PTX: 16800000 instructions simulated : ctaid=(7,2,0) tid=(12,0,0)
GPGPU-Sim uArch: cycles simulated: 41000  inst.: 16390593 (ipc=399.8) sim_rate=341470 (inst/sec) elapsed = 0:0:00:48 / Wed Apr 17 12:23:40 2019
GPGPU-Sim PTX: 16900000 instructions simulated : ctaid=(14,5,0) tid=(1,1,0)
GPGPU-Sim PTX: 17000000 instructions simulated : ctaid=(2,6,0) tid=(0,0,0)
GPGPU-Sim PTX: 17100000 instructions simulated : ctaid=(12,6,0) tid=(5,4,0)
GPGPU-Sim uArch: cycles simulated: 41500  inst.: 16649114 (ipc=401.2) sim_rate=339777 (inst/sec) elapsed = 0:0:00:49 / Wed Apr 17 12:23:41 2019
GPGPU-Sim PTX: 17200000 instructions simulated : ctaid=(12,6,0) tid=(12,1,0)
GPGPU-Sim uArch: Shader 5 finished CTA #1 (41806,0), 4 CTAs running
GPGPU-Sim uArch: core:  5, cta: 1 initialized @(41807,0)
GPGPU-Sim PTX: 17300000 instructions simulated : ctaid=(7,2,0) tid=(13,4,0)
GPGPU-Sim PTX: 17400000 instructions simulated : ctaid=(12,4,0) tid=(12,1,0)
GPGPU-Sim PTX: 17500000 instructions simulated : ctaid=(1,7,0) tid=(1,1,0)
GPGPU-Sim PTX: 17600000 instructions simulated : ctaid=(7,4,0) tid=(15,5,0)
GPGPU-Sim uArch: cycles simulated: 42500  inst.: 17139544 (ipc=403.3) sim_rate=342790 (inst/sec) elapsed = 0:0:00:50 / Wed Apr 17 12:23:42 2019
GPGPU-Sim uArch: Shader 4 finished CTA #0 (42714,0), 4 CTAs running
GPGPU-Sim uArch: core:  4, cta: 0 initialized @(42715,0)
GPGPU-Sim PTX: 17700000 instructions simulated : ctaid=(7,6,0) tid=(6,5,0)
GPGPU-Sim PTX: 17800000 instructions simulated : ctaid=(13,6,0) tid=(13,4,0)
GPGPU-Sim uArch: cycles simulated: 43000  inst.: 17324231 (ipc=402.9) sim_rate=339690 (inst/sec) elapsed = 0:0:00:51 / Wed Apr 17 12:23:43 2019
GPGPU-Sim PTX: 17900000 instructions simulated : ctaid=(2,7,0) tid=(9,7,0)
GPGPU-Sim uArch: Shader 9 finished CTA #3 (43473,0), 4 CTAs running
GPGPU-Sim uArch: core:  9, cta: 3 initialized @(43474,0)
GPGPU-Sim PTX: 18000000 instructions simulated : ctaid=(7,5,0) tid=(5,7,0)
GPGPU-Sim uArch: Shader 14 finished CTA #0 (43595,0), 4 CTAs running
GPGPU-Sim uArch: core: 14, cta: 0 initialized @(43596,0)
GPGPU-Sim uArch: Shader 6 finished CTA #3 (43599,0), 4 CTAs running
GPGPU-Sim uArch: core:  6, cta: 3 initialized @(43600,0)
GPGPU-Sim uArch: Shader 14 finished CTA #1 (43662,0), 4 CTAs running
GPGPU-Sim uArch: core: 14, cta: 1 initialized @(43663,0)
GPGPU-Sim PTX: 18100000 instructions simulated : ctaid=(6,7,0) tid=(15,0,0)
GPGPU-Sim uArch: Shader 12 finished CTA #3 (43735,0), 4 CTAs running
GPGPU-Sim uArch: core: 12, cta: 3 initialized @(43736,0)
GPGPU-Sim uArch: Shader 11 finished CTA #4 (43752,0), 4 CTAs running
GPGPU-Sim uArch: core: 11, cta: 4 initialized @(43753,0)
GPGPU-Sim PTX: 18200000 instructions simulated : ctaid=(4,5,0) tid=(1,2,0)
GPGPU-Sim uArch: Shader 10 finished CTA #4 (43949,0), 4 CTAs running
[...]
traffic_breakdown_memtocore[LOCAL_ACC_R] = 540464 {136:3974,}
traffic_breakdown_memtocore[LOCAL_ACC_W] = 267248 {8:33406,}
maxmrqlatency = 628 
maxdqlatency = 0 
maxmflatency = 1999 
averagemflatency = 278 
max_icnt2mem_latency = 1092 
max_icnt2sh_latency = 142489 
mrq_lat_table:8083 	669 	732 	1480 	2959 	2968 	3126 	2010 	272 	10 	0 	0 	0 	0 	0 	0 	0 	0 	0 	0 	0 	0 	0 	0 	0 	0 	0 	0 	0 	0 	0 	0 	
dq_lat_table:0 	0 	0 	0 	0 	0 	0 	0 	0 	0 	0 	0 	0 	0 	0 	0 	0 	0 	0 	0 	0 	0 	0 	0 	0 	0 	0 	0 	0 	0 	0 	0 	
mf_lat_table:0 	0 	0 	0 	0 	0 	0 	36619 	7118 	4736 	851 	0 	0 	0 	0 	0 	0 	0 	0 	0 	0 	0 	0 	0 	0 	0 	0 	0 	0 	0 	0 	0 	
icnt2mem_lat_table:0 	0 	0 	20452 	9354 	7798 	19325 	2113 	2264 	509 	4 	0 	0 	0 	0 	0 	0 	0 	0 	0 	0 	0 	0 	0 	
icnt2sh_lat_table:0 	0 	0 	1436 	2632 	2867 	791 	0 	0 	186 	498 	1378 	3108 	2630 	6081 	9849 	15578 	2290 	0 	0 	0 	0 	0 	0 	
mf_lat_pw_table:0 	0 	0 	0 	0 	0 	0 	235 	7 	17 	2 	0 	0 	0 	0 	0 	0 	0 	0 	0 	0 	0 	0 	0 	0 	0 	0 	0 	0 	0 	0 	0 	
maximum concurrent accesses to same row:
dram[0]:        54        56        36        34        26        22        32        24        41        20        43        32        26        45        20        19 
dram[1]:        52        54        34        32        20        22        36        35        25        21        32        53        65        46        36        39 
dram[2]:        62        62        54        56        30        30        30        32        28        29        25        56        71        44        24        43 
dram[3]:        58        60        54        56        28        30        36        23        37        35        43        30        12        25        16        49 
dram[4]:        62        64        56        52        30        32        32        27        24        22        80        18        32        50        48        68 
dram[5]:        58        60        56        48        28        34        22        37        27        28        28        30        79        24        20        48 
maximum service time to same row:
dram[0]:     47134     34300     56559     55398     26070     54956     71538     48240     26075     37688     44321     47203     25618     29527     68654     55750 
dram[1]:     34575     45706     54595     69753     33926     54619     46732     48231     34476     38810     57241     47857     52124     54851     50563     48548 
dram[2]:     53107     31603     19752     81976     35470     43700     43845     60103     33797     50292     47715     36202     33751     54207     55784     47108 
dram[3]:     60841     37456     27529     69018     39403     46806     44950     47062     39710     47070     49030     45759     35169     30636     46225     47777 
dram[4]:     33663     42128     16856     48034     35827     45170     47779     46700     29778     50550     60172     30887     38154     41820     80822     46259 
dram[5]:     34135     15303     45762     50706     22499     30822     47845     30108     33533     27343     48884     21562     33747     38824     50513     61754 
average row accesses per activate:
dram[0]:  7.793103  8.666667  7.538462  6.896552  4.056604  4.055555  5.469388  3.628205  6.023256  5.431818  6.416667  5.431818  6.611111  6.828571  6.111111  5.523809 
dram[1]:  6.250000  7.777778  6.892857  5.606061  4.096154  3.767857  4.827586  4.517241  5.636364  5.400000  6.388889  7.900000  6.702703  7.382353  7.031250  6.264706 
dram[2]: 10.523809 10.619047  8.608696 10.578947  4.312500  4.018518  5.538462  5.196078  6.410256  6.219512  5.833333  6.270270  7.028572  7.147059  6.823529  6.588235 
dram[3]:  8.400000  8.000000 10.941176 10.789474  4.163265  4.340425  5.018868  4.132353  8.033334  5.413043  6.102564  6.102564  7.677419  5.883721  5.142857  7.750000 
dram[4]: 10.900000 16.384615 11.941176  8.320000  4.288462  4.320000  4.689655  4.231884  6.365854  5.288889  6.828571  4.740000  5.756098  5.291667  6.812500  7.090909 
dram[5]:  7.535714 12.470589  8.280000  6.724138  3.650794  3.763636  3.733333  4.892857  4.903846  5.772727  6.153846  5.325582  6.783784  7.911765  6.969697  7.200000 
average row locality = 22309/3774 = 5.911235
number of total memory accesses made:
dram[0]:         0         0         0         0         0         0         0         0         0         0         0         0         0         0         0         0 
dram[1]:         0         0         0         0         0         0         0         0         0         0         0         0         0         0         0         0 
dram[2]:         0         0         0         0         0         0         0         0         0         0         0         0         0         0         0         0 
dram[3]:         0         0         0         0         0         0         0         0         0         0         0         0         0         0         0         0 
dram[4]:         0         0         0         0         0         0         0         0         0         0         0         0         0         0         0         0 
dram[5]:         0         0         0         0         0         0         0         0         0         0         0         0         0         0         0         0 
total accesses: 0
min_bank_accesses = 0!
min_chip_accesses = 0!
number of total read accesses:
dram[0]:       104        91        85        85        85        92       112       118       119       112       106       109       112       107       101       105 
dram[1]:        99        92        81        77        89        85       117       108       118       114       103       104       112       111       100       100 
dram[2]:        96       100        87        87        86        88       119       112       121       118       109       105       110       113       105       102 
dram[3]:        93        90        79        87        80        88       112       120       115       116       105       106       107       114        98        98 
dram[4]:        97        96        88        89        90        89       113       123       120       114       107       108       110       113       101       107 
dram[5]:        92        97        88        81        96        82       118       113       119       120       108       105       114       119       101       102 
total reads: 9839
bank skew: 123/77 = 1.60
chip skew: 1665/1608 = 1.04
number of total write accesses:
dram[0]:       122       117       111       115       130       127       156       165       140       127       125       130       126       132       119       127 
dram[1]:       126       118       112       108       124       126       163       154       130       129       127       133       136       140       125       113 
dram[2]:       125       123       111       114       121       129       169       153       129       137       136       127       136       130       127       122 
dram[3]:       117       118       107       118       124       116       154       161       126       133       133       132       131       139       118       119 
dram[4]:       121       117       115       119       133       127       159       169       141       124       132       129       126       141       117       127 
dram[5]:       119       115       119       114       134       125       162       161       136       134       132       124       137       150       129       114 
total reads: 12470
bank skew: 169/107 = 1.58
chip skew: 2105/2046 = 1.03
average mf latency per bank:
dram[0]:        557       509       632       584       689       614       682       613       625       665       698       655       668       660       626       586
dram[1]:        519       497       585       607       633       596       621       601       614       620       657       631       608       588       590       591
dram[2]:        531       503       646       626       690       668       612       639       635       606       624       665       651       639       595       609
dram[3]:        513       529       671       626       655       688       623       594       644       604       623       665       673       602       623       628
dram[4]:        511       524       649       597       650       698       668       593       621       670       665       680       684       629       639       607
dram[5]:        485       500       585       588       557       640       593       586       607       588       617       668       605       550       580       591
maximum mf latency per bank:
dram[0]:       1295      1076      1674      1172      1999      1319      1373      1228      1356      1063      1289      1102      1497      1213      1244      1127
dram[1]:        985      1005      1318      1232      1284      1323      1277      1039      1064      1028      1095      1028       988       904       947       966
dram[2]:       1315      1333      1762      1750      1536      1530      1661      1442      1351      1508      1234      1318      1445      1273      1189      1332
dram[3]:       1138      1370      1535      1699      1341      1483      1218      1450      1156      1089      1000      1198      1148      1183      1053      1123
dram[4]:       1393      1514      1843      1844      1677      1619      1533      1589      1552      1374      1286      1359      1410      1402      1490      1311
dram[5]:       1365      1329      1802      1570      1635      1549      1784      1704      1337      1271      1235      1223      1320      1238      1312      1264

Number of Memory Banks Accessed per Memory Operation per Warp (from 0):
0	0	0	0	0	0	0	0	0	0	0	0	0	0	0	0	0	0	0	0	0	0	0	0	0	0	0	0	0	0	0	0	0	0	0	0	0	0	0	0	0	0	0	0	0	0	0	0	0	0	0	0	0	0	0	0	0	0	0	0	0	0	0	0	0	0	0	0	0	0	0	0	0	0	0	0	0	0	0	0	0	0	0	0	0	0	0	0	0	0	0	0	0	0	0	0	
Average # of Memory Banks Accessed per Memory Operation per Warp=-nan

position of mrq chosen
0	0	0	0	0	0	0	0	0	0	0	0	0	0	0	0	

average position of mrq chosen = -nan
Memory Partition 0: 
Cache L2_bank_000:
MSHR contents

Cache L2_bank_001:
MSHR contents

In Dram Latency Queue (total = 0): 
DRAM[0]: 16 bks, busW=4 BL=8 CL=12, tRRD=2 tCCD=6, tRCD=12 tRAS=28 tRP=12 tRC=40
n_cmd=188086 n_nop=179840 n_act=658 n_pre=642 n_req=3712 n_rd=3286 n_write=3660 bw_util=0.07386
n_activity=31591 dram_eff=0.4397
bk0: 208a 181680i bk1: 182a 182329i bk2: 170a 181196i bk3: 170a 181371i bk4: 170a 179560i bk5: 184a 179854i bk6: 224a 177710i bk7: 236a 177429i bk8: 238a 179927i bk9: 224a 180156i bk10: 212a 180081i bk11: 218a 180073i bk12: 224a 179892i bk13: 214a 180098i bk14: 202a 181044i bk15: 210a 180737i 
dram_util_bins: 0 0 0 0 0 0 0 0 0 0
dram_eff_bins: 0 0 0 0 0 0 0 0 0 0
mrqq: max=16 avg=1.10919
Memory Partition 1: 
Cache L2_bank_002:
MSHR contents

Cache L2_bank_003:
MSHR contents

In Dram Latency Queue (total = 0): 
DRAM[1]: 16 bks, busW=4 BL=8 CL=12, tRRD=2 tCCD=6, tRCD=12 tRAS=28 tRP=12 tRC=40
n_cmd=188086 n_nop=179964 n_act=640 n_pre=624 n_req=3674 n_rd=3220 n_write=3638 bw_util=0.07292
n_activity=31032 dram_eff=0.442
bk0: 198a 181292i bk1: 184a 181904i bk2: 162a 181255i bk3: 154a 181609i bk4: 178a 179261i bk5: 170a 179281i bk6: 234a 177705i bk7: 216a 178518i bk8: 236a 179689i bk9: 228a 179654i bk10: 206a 180619i bk11: 208a 180166i bk12: 224a 179398i bk13: 222a 180590i bk14: 200a 181074i bk15: 200a 181018i 
dram_util_bins: 0 0 0 0 0 0 0 0 0 0
dram_eff_bins: 0 0 0 0 0 0 0 0 0 0
mrqq: max=16 avg=1.07351
Memory Partition 2: 
Cache L2_bank_004:
MSHR contents

Cache L2_bank_005:
MSHR contents

In Dram Latency Queue (total = 0): 
DRAM[2]: 16 bks, busW=4 BL=8 CL=12, tRRD=2 tCCD=6, tRCD=12 tRAS=28 tRP=12 tRC=40
n_cmd=188086 n_nop=179917 n_act=585 n_pre=569 n_req=3747 n_rd=3316 n_write=3699 bw_util=0.07459
n_activity=31936 dram_eff=0.4393
bk0: 192a 181863i bk1: 200a 182106i bk2: 174a 181946i bk3: 174a 181598i bk4: 172a 180037i bk5: 176a 180058i bk6: 238a 177481i bk7: 224a 178028i bk8: 242a 179946i bk9: 236a 179854i bk10: 218a 179861i bk11: 210a 180577i bk12: 220a 179945i bk13: 226a 179656i bk14: 210a 180730i bk15: 204a 181023i 
dram_util_bins: 0 0 0 0 0 0 0 0 0 0
dram_eff_bins: 0 0 0 0 0 0 0 0 0 0
mrqq: max=16 avg=1.1216
Memory Partition 3: 
Cache L2_bank_006:
MSHR contents

Cache L2_bank_007:
MSHR contents

In Dram Latency Queue (total = 0): 
DRAM[3]: 16 bks, busW=4 BL=8 CL=12, tRRD=2 tCCD=6, tRCD=12 tRAS=28 tRP=12 tRC=40
n_cmd=188086 n_nop=180071 n_act=602 n_pre=586 n_req=3654 n_rd=3216 n_write=3611 bw_util=0.07259
n_activity=31930 dram_eff=0.4276
bk0: 186a 182695i bk1: 180a 181940i bk2: 158a 182020i bk3: 174a 181658i bk4: 160a 180774i bk5: 176a 180406i bk6: 224a 179040i bk7: 240a 178097i bk8: 230a 180390i bk9: 232a 179816i bk10: 210a 180276i bk11: 212a 179676i bk12: 214a 180447i bk13: 228a 179959i bk14: 196a 180881i bk15: 196a 181008i 
dram_util_bins: 0 0 0 0 0 0 0 0 0 0
dram_eff_bins: 0 0 0 0 0 0 0 0 0 0
mrqq: max=16 avg=1.0849
Memory Partition 4: 
Cache L2_bank_008:
MSHR contents

Cache L2_bank_009:
MSHR contents

In Dram Latency Queue (total = 0): 
DRAM[4]: 16 bks, busW=4 BL=8 CL=12, tRRD=2 tCCD=6, tRCD=12 tRAS=28 tRP=12 tRC=40
n_cmd=188086 n_nop=179789 n_act=629 n_pre=613 n_req=3762 n_rd=3330 n_write=3725 bw_util=0.07502
n_activity=33276 dram_eff=0.424
bk0: 194a 182274i bk1: 192a 182656i bk2: 176a 181569i bk3: 178a 181459i bk4: 180a 179489i bk5: 178a 179627i bk6: 226a 177450i bk7: 246a 177620i bk8: 240a 179455i bk9: 228a 179553i bk10: 214a 179948i bk11: 216a 179816i bk12: 220a 179825i bk13: 226a 179264i bk14: 202a 181124i bk15: 214a 181052i 
dram_util_bins: 0 0 0 0 0 0 0 0 0 0
dram_eff_bins: 0 0 0 0 0 0 0 0 0 0
mrqq: max=16 avg=1.13095
Memory Partition 5: 
Cache L2_bank_010:
MSHR contents

Cache L2_bank_011:
MSHR contents

In Dram Latency Queue (total = 0): 
DRAM[5]: 16 bks, busW=4 BL=8 CL=12, tRRD=2 tCCD=6, tRCD=12 tRAS=28 tRP=12 tRC=40
n_cmd=188086 n_nop=179744 n_act=660 n_pre=644 n_req=3760 n_rd=3310 n_write=3728 bw_util=0.07484
n_activity=33682 dram_eff=0.4179
bk0: 184a 181884i bk1: 194a 182483i bk2: 176a 181367i bk3: 162a 181969i bk4: 192a 179331i bk5: 164a 180280i bk6: 236a 177808i bk7: 226a 178717i bk8: 238a 179825i bk9: 240a 179904i bk10: 216a 180452i bk11: 210a 180137i bk12: 228a 179670i bk13: 238a 179564i bk14: 202a 181109i bk15: 204a 181253i 
dram_util_bins: 0 0 0 0 0 0 0 0 0 0
dram_eff_bins: 0 0 0 0 0 0 0 0 0 0
mrqq: max=16 avg=1.06185

========= L2 cache stats =========
L2_cache_bank[0]: Access = 5051, Miss = 824, Miss_rate = 0.163, Pending_hits = 83, Reservation_fails = 1111
L2_cache_bank[1]: Access = 5202, Miss = 819, Miss_rate = 0.157, Pending_hits = 84, Reservation_fails = 603
L2_cache_bank[2]: Access = 5051, Miss = 819, Miss_rate = 0.162, Pending_hits = 96, Reservation_fails = 927
L2_cache_bank[3]: Access = 5141, Miss = 791, Miss_rate = 0.154, Pending_hits = 82, Reservation_fails = 415
L2_cache_bank[4]: Access = 4965, Miss = 833, Miss_rate = 0.168, Pending_hits = 90, Reservation_fails = 955
L2_cache_bank[5]: Access = 5138, Miss = 825, Miss_rate = 0.161, Pending_hits = 74, Reservation_fails = 380
L2_cache_bank[6]: Access = 5218, Miss = 789, Miss_rate = 0.151, Pending_hits = 78, Reservation_fails = 379
L2_cache_bank[7]: Access = 5334, Miss = 819, Miss_rate = 0.154, Pending_hits = 80, Reservation_fails = 414
L2_cache_bank[8]: Access = 5236, Miss = 826, Miss_rate = 0.158, Pending_hits = 74, Reservation_fails = 644
L2_cache_bank[9]: Access = 5053, Miss = 839, Miss_rate = 0.166, Pending_hits = 74, Reservation_fails = 310
L2_cache_bank[10]: Access = 5278, Miss = 836, Miss_rate = 0.158, Pending_hits = 82, Reservation_fails = 629
L2_cache_bank[11]: Access = 5152, Miss = 819, Miss_rate = 0.159, Pending_hits = 78, Reservation_fails = 403
L2_total_cache_accesses = 61819
L2_total_cache_misses = 9839
L2_total_cache_miss_rate = 0.1592
L2_total_cache_pending_hits = 975
L2_total_cache_reservation_fails = 7170
L2_total_cache_breakdown:
	L2_cache_stats_breakdown[GLOBAL_ACC_R][HIT] = 3640
	L2_cache_stats_breakdown[GLOBAL_ACC_R][HIT_RESERVED] = 10
	L2_cache_stats_breakdown[GLOBAL_ACC_R][MISS] = 72
	L2_cache_stats_breakdown[GLOBAL_ACC_R][RESERVATION_FAIL] = 366
	L2_cache_stats_breakdown[LOCAL_ACC_R][HIT] = 3784
	L2_cache_stats_breakdown[LOCAL_ACC_R][HIT_RESERVED] = 3
	L2_cache_stats_breakdown[LOCAL_ACC_R][MISS] = 187
	L2_cache_stats_breakdown[CONST_ACC_R][HIT] = 22
	L2_cache_stats_breakdown[CONST_ACC_R][HIT_RESERVED] = 6
	L2_cache_stats_breakdown[CONST_ACC_R][MISS] = 2
	L2_cache_stats_breakdown[CONST_ACC_R][RESERVATION_FAIL] = 574
	L2_cache_stats_breakdown[GLOBAL_ACC_W][HIT] = 5345
	L2_cache_stats_breakdown[GLOBAL_ACC_W][HIT_RESERVED] = 799
	L2_cache_stats_breakdown[GLOBAL_ACC_W][MISS] = 2048
	L2_cache_stats_breakdown[GLOBAL_ACC_W][RESERVATION_FAIL] = 10
	L2_cache_stats_breakdown[LOCAL_ACC_W][HIT] = 25938
	L2_cache_stats_breakdown[LOCAL_ACC_W][MISS] = 7468
	L2_cache_stats_breakdown[LOCAL_ACC_W][RESERVATION_FAIL] = 178
	L2_cache_stats_breakdown[L1_WRBK_ACC][HIT] = 26
	L2_cache_stats_breakdown[L1_WRBK_ACC][MISS] = 9
	L2_cache_stats_breakdown[INST_ACC_R][HIT] = 12250
	L2_cache_stats_breakdown[INST_ACC_R][HIT_RESERVED] = 157
	L2_cache_stats_breakdown[INST_ACC_R][MISS] = 53
	L2_cache_stats_breakdown[INST_ACC_R][RESERVATION_FAIL] = 6042
L2_cache_data_port_util = 0.112
L2_cache_fill_port_util = 0.023

icnt_total_pkts_mem_to_simt=142468
icnt_total_pkts_simt_to_mem=209574
LD_mem_lat_dist  0 0 0 0 0 0 0 0 0 0 0 0 0 0 0 0 0 0 0 0 0 0 0 0 0 0 0
ST_mem_lat_dist  0 0 0 0 0 0 0 0 0 0 0 0 0 0 0 0 0 0 0 0 0 0 0 0 0 0 0
----------------------------Interconnect-DETAILS--------------------------------
Class 0:
Packet latency average = 17.8288
	minimum = 6
	maximum = 703
Network latency average = 14.1028
	minimum = 6
	maximum = 678
Slowest packet = 707
Flit latency average = 13.6875
	minimum = 6
	maximum = 674
Slowest flit = 10925
Fragmentation average = 0.141979
	minimum = 0
	maximum = 551
Injected packet rate average = 0.0321278
	minimum = 0.0238403 (at node 12)
	maximum = 0.0374342 (at node 22)
Accepted packet rate average = 0.0321278
	minimum = 0.0237911 (at node 12)
	maximum = 0.0374342 (at node 22)
Injected flit rate average = 0.0915053
	minimum = 0.0711138 (at node 12)
	maximum = 0.122444 (at node 1)
Accepted flit rate average= 0.0915053
	minimum = 0.0553513 (at node 0)
	maximum = 0.125679 (at node 22)
Injected packet length average = 2.84817
Accepted packet length average = 2.84817
Total in-flight flits = 0 (0 measured)
====== Overall Traffic Statistics ======
====== Traffic class 0 ======
Packet latency average = 17.8288 (1 samples)
	minimum = 6 (1 samples)
	maximum = 703 (1 samples)
Network latency average = 14.1028 (1 samples)
	minimum = 6 (1 samples)
	maximum = 678 (1 samples)
Flit latency average = 13.6875 (1 samples)
	minimum = 6 (1 samples)
	maximum = 674 (1 samples)
Fragmentation average = 0.141979 (1 samples)
	minimum = 0 (1 samples)
	maximum = 551 (1 samples)
Injected packet rate average = 0.0321278 (1 samples)
	minimum = 0.0238403 (1 samples)
	maximum = 0.0374342 (1 samples)
Accepted packet rate average = 0.0321278 (1 samples)
	minimum = 0.0237911 (1 samples)
	maximum = 0.0374342 (1 samples)
Injected flit rate average = 0.0915053 (1 samples)
	minimum = 0.0711138 (1 samples)
	maximum = 0.122444 (1 samples)
Accepted flit rate average = 0.0915053 (1 samples)
	minimum = 0.0553513 (1 samples)
	maximum = 0.125679 (1 samples)
Injected packet size average = 2.84817 (1 samples)
Accepted packet size average = 2.84817 (1 samples)
Hops average = 1 (1 samples)
----------------------------END-of-Interconnect-DETAILS-------------------------


gpgpu_simulation_time = 0 days, 0 hrs, 3 min, 20 sec (200 sec)
gpgpu_simulation_rate = 313413 (inst/sec)
gpgpu_simulation_rate = 712 (cycle/sec)
GPGPU-Sim: synchronize waiting for inactive GPU simulation
GPGPU-Sim API: Stream Manager State
GPGPU-Sim: detected inactive GPU simulation thread

checksum=75ef40cb5b8e
Kernel Time: 199650.609375 
