

        *** GPGPU-Sim Simulator Version 3.2.2  [build 0] ***


GPGPU-Sim PTX: simulation mode 0 (can change with PTX_SIM_MODE_FUNC environment variable:
               1=functional simulation only, 0=detailed performance simulator)
GPGPU-Sim: Configuration options:

-network_mode                           1 # Interconnection network mode
-inter_config_file   config_fermi_islip.icnt # Interconnection network config file
-gpgpu_ptx_use_cuobjdump                    1 # Use cuobjdump to extract ptx and sass from binaries
-gpgpu_experimental_lib_support                    0 # Try to extract code from cuda libraries [Broken because of unknown cudaGetExportTable]
-gpgpu_ptx_convert_to_ptxplus                    0 # Convert SASS (native ISA) to ptxplus and run ptxplus
-gpgpu_ptx_force_max_capability                   20 # Force maximum compute capability
-gpgpu_ptx_inst_debug_to_file                    0 # Dump executed instructions' debug information to file
-gpgpu_ptx_inst_debug_file       inst_debug.txt # Executed instructions' debug output file
-gpgpu_ptx_inst_debug_thread_uid                    1 # Thread UID for executed instructions' debug output
-gpgpu_simd_model                       1 # 1 = post-dominator
-gpgpu_shader_core_pipeline              1536:32 # shader core pipeline config, i.e., {<nthread>:<warpsize>}
-gpgpu_tex_cache:l1  4:128:24,L:R:m:N:L,F:128:4,128:2 # per-shader L1 texture cache  (READ-ONLY) config  {<nsets>:<bsize>:<assoc>,<rep>:<wr>:<alloc>:<wr_alloc>,<mshr>:<N>:<merge>,<mq>:<rf>}
-gpgpu_const_cache:l1 64:64:2,L:R:f:N:L,A:2:32,4 # per-shader L1 constant memory cache  (READ-ONLY) config  {<nsets>:<bsize>:<assoc>,<rep>:<wr>:<alloc>:<wr_alloc>,<mshr>:<N>:<merge>,<mq>} 
-gpgpu_cache:il1     4:128:4,L:R:f:N:L,A:2:32,4 # shader L1 instruction cache config  {<nsets>:<bsize>:<assoc>,<rep>:<wr>:<alloc>:<wr_alloc>,<mshr>:<N>:<merge>,<mq>} 
-gpgpu_cache:dl1     64:128:1,L:L:m:N:H,A:32:8,8 # per-shader L1 data cache config  {<nsets>:<bsize>:<assoc>,<rep>:<wr>:<alloc>:<wr_alloc>,<mshr>:<N>:<merge>,<mq> | none}
-gpgpu_cache:dl1PrefL1                 none # per-shader L1 data cache config  {<nsets>:<bsize>:<assoc>,<rep>:<wr>:<alloc>:<wr_alloc>,<mshr>:<N>:<merge>,<mq> | none}
-gpgpu_cache:dl1PreShared                 none # per-shader L1 data cache config  {<nsets>:<bsize>:<assoc>,<rep>:<wr>:<alloc>:<wr_alloc>,<mshr>:<N>:<merge>,<mq> | none}
-gmem_skip_L1D                          0 # global memory access skip L1D cache (implements -Xptxas -dlcm=cg, default=no skip)
-gpgpu_perfect_mem                      0 # enable perfect memory mode (no cache miss)
-n_regfile_gating_group                    4 # group of lanes that should be read/written together)
-gpgpu_clock_gated_reg_file                    0 # enable clock gated reg file for power calculations
-gpgpu_clock_gated_lanes                    0 # enable clock gated lanes for power calculations
-gpgpu_shader_registers                32768 # Number of registers per shader core. Limits number of concurrent CTAs. (default 8192)
-gpgpu_shader_cta                       8 # Maximum number of concurrent CTAs in shader (default 8)
-gpgpu_num_cta_barriers                   16 # Maximum number of named barriers per CTA (default 16)
-gpgpu_n_clusters                      15 # number of processing clusters
-gpgpu_n_cores_per_cluster                    1 # number of simd cores per cluster
-gpgpu_n_cluster_ejection_buffer_size                    8 # number of packets in ejection buffer
-gpgpu_n_ldst_response_buffer_size                    2 # number of response packets in ld/st unit ejection buffer
-gpgpu_shmem_size                   16384 # Size of shared memory per shader core (default 16kB)
-gpgpu_shmem_size                   49152 # Size of shared memory per shader core (default 16kB)
-gpgpu_shmem_size_PrefL1                16384 # Size of shared memory per shader core (default 16kB)
-gpgpu_shmem_size_PrefShared                16384 # Size of shared memory per shader core (default 16kB)
-gpgpu_shmem_num_banks                   32 # Number of banks in the shared memory in each shader core (default 16)
-gpgpu_shmem_limited_broadcast                    0 # Limit shared memory to do one broadcast per cycle (default on)
-gpgpu_shmem_warp_parts                    1 # Number of portions a warp is divided into for shared memory bank conflict check 
-gpgpu_warpdistro_shader                   -1 # Specify which shader core to collect the warp size distribution from
-gpgpu_warp_issue_shader                    0 # Specify which shader core to collect the warp issue distribution from
-gpgpu_local_mem_map                    1 # Mapping from local memory space address to simulated GPU physical address space (default = enabled)
-gpgpu_num_reg_banks                   16 # Number of register banks (default = 8)
-gpgpu_reg_bank_use_warp_id                    0 # Use warp ID in mapping registers to banks (default = off)
-gpgpu_operand_collector_num_units_sp                    6 # number of collector units (default = 4)
-gpgpu_operand_collector_num_units_sfu                    8 # number of collector units (default = 4)
-gpgpu_operand_collector_num_units_mem                    2 # number of collector units (default = 2)
-gpgpu_operand_collector_num_units_gen                    0 # number of collector units (default = 0)
-gpgpu_operand_collector_num_in_ports_sp                    2 # number of collector unit in ports (default = 1)
-gpgpu_operand_collector_num_in_ports_sfu                    1 # number of collector unit in ports (default = 1)
-gpgpu_operand_collector_num_in_ports_mem                    1 # number of collector unit in ports (default = 1)
-gpgpu_operand_collector_num_in_ports_gen                    0 # number of collector unit in ports (default = 0)
-gpgpu_operand_collector_num_out_ports_sp                    2 # number of collector unit in ports (default = 1)
-gpgpu_operand_collector_num_out_ports_sfu                    1 # number of collector unit in ports (default = 1)
-gpgpu_operand_collector_num_out_ports_mem                    1 # number of collector unit in ports (default = 1)
-gpgpu_operand_collector_num_out_ports_gen                    0 # number of collector unit in ports (default = 0)
-gpgpu_coalesce_arch                   13 # Coalescing arch (default = 13, anything else is off for now)
-gpgpu_num_sched_per_core                    2 # Number of warp schedulers per core
-gpgpu_max_insn_issue_per_warp                    1 # Max number of instructions that can be issued per warp in one cycle by scheduler
-gpgpu_simt_core_sim_order                    1 # Select the simulation order of cores in a cluster (0=Fix, 1=Round-Robin)
-gpgpu_pipeline_widths        2,1,1,2,1,1,2 # Pipeline widths ID_OC_SP,ID_OC_SFU,ID_OC_MEM,OC_EX_SP,OC_EX_SFU,OC_EX_MEM,EX_WB
-gpgpu_num_sp_units                     2 # Number of SP units (default=1)
-gpgpu_num_sfu_units                    1 # Number of SF units (default=1)
-gpgpu_num_mem_units                    1 # Number if ldst units (default=1) WARNING: not hooked up to anything
-gpgpu_scheduler                      gto # Scheduler configuration: < lrr | gto | two_level_active > If two_level_active:<num_active_warps>:<inner_prioritization>:<outer_prioritization>For complete list of prioritization values see shader.h enum scheduler_prioritization_typeDefault: gto
-gpgpu_dram_scheduler                    1 # 0 = fifo, 1 = FR-FCFS (defaul)
-gpgpu_dram_partition_queues              8:8:8:8 # i2$:$2d:d2$:$2i
-l2_ideal                               0 # Use a ideal L2 cache that always hit
-gpgpu_cache:dl2     64:128:8,L:B:m:W:L,A:32:4,4:0,32 # unified banked L2 data cache config  {<nsets>:<bsize>:<assoc>,<rep>:<wr>:<alloc>:<wr_alloc>,<mshr>:<N>:<merge>,<mq>}
-gpgpu_cache:dl2_texture_only                    0 # L2 cache used for texture only
-gpgpu_n_mem                            6 # number of memory modules (e.g. memory controllers) in gpu
-gpgpu_n_sub_partition_per_mchannel                    2 # number of memory subpartition in each memory module
-gpgpu_n_mem_per_ctrlr                    2 # number of memory chips per memory controller
-gpgpu_memlatency_stat                   14 # track and display latency statistics 0x2 enables MC, 0x4 enables queue logs
-gpgpu_frfcfs_dram_sched_queue_size                   16 # 0 = unlimited (default); # entries per chip
-gpgpu_dram_return_queue_size                  116 # 0 = unlimited (default); # entries per chip
-gpgpu_dram_buswidth                    4 # default = 4 bytes (8 bytes per cycle at DDR)
-gpgpu_dram_burst_length                    8 # Burst length of each DRAM request (default = 4 data bus cycle)
-dram_data_command_freq_ratio                    4 # Frequency ratio between DRAM data bus and command bus (default = 2 times, i.e. DDR)
-gpgpu_dram_timing_opt nbk=16:CCD=2:RRD=6:RCD=12:RAS=28:RP=12:RC=40: CL=12:WL=4:CDLR=5:WR=12:nbkgrp=4:CCDL=3:RTPL=2 # DRAM timing parameters = {nbk:tCCD:tRRD:tRCD:tRAS:tRP:tRC:CL:WL:tCDLR:tWR:nbkgrp:tCCDL:tRTPL}
-rop_latency                          120 # ROP queue latency (default 85)
-dram_latency                         100 # DRAM latency (default 30)
-gpgpu_mem_addr_mapping dramid@8;00000000.00000000.00000000.00000000.0000RRRR.RRRRRRRR.BBBCCCCB.CCSSSSSS # mapping memory address to dram model {dramid@<start bit>;<memory address map>}
-gpgpu_mem_addr_test                    0 # run sweep test to check address mapping for aliased address
-gpgpu_mem_address_mask                    1 # 0 = old addressing mask, 1 = new addressing mask, 2 = new add. mask + flipped bank sel and chip sel bits
-gpuwattch_xml_file  gpuwattch_gtx480.xml # GPUWattch XML file
-power_simulation_enabled                    1 # Turn on power simulator (1=On, 0=Off)
-power_per_cycle_dump                    0 # Dump detailed power output each cycle
-power_trace_enabled                    0 # produce a file for the power trace (1=On, 0=Off)
-power_trace_zlevel                     6 # Compression level of the power trace output log (0=no comp, 9=highest)
-steady_power_levels_enabled                    0 # produce a file for the steady power levels (1=On, 0=Off)
-steady_state_definition                  8:4 # allowed deviation:number of samples
-gpgpu_max_cycle                        0 # terminates gpu simulation early (0 = no limit)
-gpgpu_max_insn                         0 # terminates gpu simulation early (0 = no limit)
-gpgpu_max_cta                          0 # terminates gpu simulation early (0 = no limit)
-gpgpu_runtime_stat                   500 # display runtime statistics such as dram utilization {<freq>:<flag>}
-liveness_message_freq                    1 # Minimum number of seconds between simulation liveness messages (0 = always print)
-gpgpu_flush_l1_cache                    0 # Flush L1 cache at the end of each kernel call
-gpgpu_flush_l2_cache                    0 # Flush L2 cache at the end of each kernel call
-gpgpu_deadlock_detect                    1 # Stop the simulation at deadlock (1=on (default), 0=off)
-gpgpu_ptx_instruction_classification                    0 # if enabled will classify ptx instruction types per kernel (Max 255 kernels now)
-gpgpu_ptx_sim_mode                     0 # Select between Performance (default) or Functional simulation (1)
-gpgpu_clock_domains 700.0:700.0:700.0:924.0 # Clock Domain Frequencies in MhZ {<Core Clock>:<ICNT Clock>:<L2 Clock>:<DRAM Clock>}
-gpgpu_max_concurrent_kernel                    8 # maximum kernels that can run concurrently on GPU
-gpgpu_cflog_interval                    0 # Interval between each snapshot in control flow logger
-visualizer_enabled                     0 # Turn on visualizer output (1=On, 0=Off)
-visualizer_outputfile                 NULL # Specifies the output log file for visualizer
-visualizer_zlevel                      6 # Compression level of the visualizer output log (0=no comp, 9=highest)
-trace_enabled                          0 # Turn on traces
-trace_components                    none # comma seperated list of traces to enable. Complete list found in trace_streams.tup. Default none
-trace_sampling_core                    0 # The core which is printed using CORE_DPRINTF. Default 0
-trace_sampling_memory_partition                   -1 # The memory partition which is printed using MEMPART_DPRINTF. Default -1 (i.e. all)
-enable_ptx_file_line_stats                    1 # Turn on PTX source line statistic profiling. (1 = On)
-ptx_line_stats_filename gpgpu_inst_stats.txt # Output file for PTX source line statistics.
-save_embedded_ptx                      0 # saves ptx files embedded in binary as <n>.ptx
-keep                                   0 # keep intermediate files created by GPGPU-Sim when interfacing with external programs
-gpgpu_ptx_save_converted_ptxplus                    0 # Saved converted ptxplus to a file
-ptx_opcode_latency_int         4,13,4,5,145 # Opcode latencies for integers <ADD,MAX,MUL,MAD,DIV>Default 1,1,19,25,145
-ptx_opcode_latency_fp          4,13,4,5,39 # Opcode latencies for single precision floating points <ADD,MAX,MUL,MAD,DIV>Default 1,1,1,1,30
-ptx_opcode_latency_dp         8,19,8,8,330 # Opcode latencies for double precision floating points <ADD,MAX,MUL,MAD,DIV>Default 8,8,8,8,335
-ptx_opcode_initiation_int            1,2,2,1,8 # Opcode initiation intervals for integers <ADD,MAX,MUL,MAD,DIV>Default 1,1,4,4,32
-ptx_opcode_initiation_fp            1,2,1,1,4 # Opcode initiation intervals for single precision floating points <ADD,MAX,MUL,MAD,DIV>Default 1,1,1,1,5
-ptx_opcode_initiation_dp         8,16,8,8,130 # Opcode initiation intervals for double precision floating points <ADD,MAX,MUL,MAD,DIV>Default 8,8,8,8,130
DRAM Timing Options:
nbk                                    16 # number of banks
CCD                                     2 # column to column delay
RRD                                     6 # minimal delay between activation of rows in different banks
RCD                                    12 # row to column delay
RAS                                    28 # time needed to activate row
RP                                     12 # time needed to precharge (deactivate) row
RC                                     40 # row cycle time
CDLR                                    5 # switching from write to read (changes tWTR)
WR                                     12 # last data-in to row precharge
CL                                     12 # CAS latency
WL                                      4 # Write latency
nbkgrp                                  4 # number of bank groups
CCDL                                    3 # column to column delay between accesses to different bank groups
RTPL                                    2 # read to precharge delay between accesses to different bank groups
Total number of memory sub partition = 12
addr_dec_mask[CHIP]  = 0000000000000000 	high:64 low:0
addr_dec_mask[BK]    = 000000000000e100 	high:16 low:8
addr_dec_mask[ROW]   = 000000000fff0000 	high:28 low:16
addr_dec_mask[COL]   = 0000000000001eff 	high:13 low:0
addr_dec_mask[BURST] = 000000000000003f 	high:6 low:0
sub_partition_id_mask = 0000000000000100
GPGPU-Sim uArch: clock freqs: 700000000.000000:700000000.000000:700000000.000000:924000000.000000
GPGPU-Sim uArch: clock periods: 0.00000000142857142857:0.00000000142857142857:0.00000000142857142857:0.00000000108225108225
*** Initializing Memory Statistics ***
GPGPU-Sim uArch: interconnect node map (shaderID+MemID to icntID)
GPGPU-Sim uArch: Memory nodes ID start from index: 15
GPGPU-Sim uArch:    0   1   2   3   4
GPGPU-Sim uArch:    5   6   7   8   9
GPGPU-Sim uArch:   10  11  12  13  14
GPGPU-Sim uArch:   15  16  17  18  19
GPGPU-Sim uArch:   20  21  22  23  24
GPGPU-Sim uArch:   25  26
GPGPU-Sim uArch: interconnect node reverse map (icntID to shaderID+MemID)
GPGPU-Sim uArch: Memory nodes start from ID: 15
GPGPU-Sim uArch:    0   1   2   3   4
GPGPU-Sim uArch:    5   6   7   8   9
GPGPU-Sim uArch:   10  11  12  13  14
GPGPU-Sim uArch:   15  16  17  18  19
GPGPU-Sim uArch:   20  21  22  23  24
GPGPU-Sim uArch:   25  26
2a552cef618c3eed1202856b15bdbc61  /home/scratch/adwait/applications/benchmarks/CUDA/RAY/gpgpu_ptx_sim__RAY
GPGPU-Sim uArch: performance model initialization complete.
GPGPU-Sim PTX: __cudaRegisterFatBinary, fat_cubin_handle = 1, filename=rayTracing.cu
self exe links to: /home/scratch/adwait/applications/benchmarks/CUDA/RAY/gpgpu_ptx_sim__RAY
Running md5sum using "md5sum /home/scratch/adwait/applications/benchmarks/CUDA/RAY/gpgpu_ptx_sim__RAY "
Running cuobjdump using "$CUDA_INSTALL_PATH/bin/cuobjdump -ptx -elf -sass /home/scratch/adwait/applications/benchmarks/CUDA/RAY/gpgpu_ptx_sim__RAY > _cuobjdump_complete_output_fCVV8S"
Parsing file _cuobjdump_complete_output_fCVV8S
######### cuobjdump parser ########
## Adding new section ELF
Adding arch: sm_20
Adding identifier: rayTracing.cu
## Adding new section PTX
Adding ptx filename: _cuobjdump_1.ptx
Adding arch: sm_20
Adding identifier: rayTracing.cu
Done parsing!!!
GPGPU-Sim PTX: __cudaRegisterFunction _Z6renderPjP4Nodejjff : hostFun 0x0x40d033, fat_cubin_handle = 1
GPGPU-Sim PTX: allocating stack frame region for .param "__cudaretf__Zmi6float3S_" from 0x0 to 0xc
GPGPU-Sim PTX: allocating stack frame region for .param "__cudaparmf1__Zmi6float3S_" from 0xc to 0x18
GPGPU-Sim PTX: allocating stack frame region for .param "__cudaparmf2__Zmi6float3S_" from 0x18 to 0x24
GPGPU-Sim PTX: allocating stack frame region for .param "__cudaretf__Z9normalize6float3" from 0x0 to 0xc
GPGPU-Sim PTX: allocating stack frame region for .param "__cudaparmf1__Z9normalize6float3" from 0xc to 0x18
GPGPU-Sim PTX: allocating stack frame region for .param "__cudaretf__Z18intersectionSphere5Rayon6float3f" from 0x0 to 0x4
GPGPU-Sim PTX: allocating stack frame region for .param "__cudaparmf1__Z18intersectionSphere5Rayon6float3f" from 0x4 to 0x1c
GPGPU-Sim PTX: allocating stack frame region for .param "__cudaparmf2__Z18intersectionSphere5Rayon6float3f" from 0x1c to 0x28
GPGPU-Sim PTX: allocating stack frame region for .param "__cudaparmf3__Z18intersectionSphere5Rayon6float3f" from 0x28 to 0x2c
GPGPU-Sim PTX: allocating stack frame region for .param "__cudaretf__Z16intersectionPlan5Rayon6float3S0_" from 0x0 to 0x4
GPGPU-Sim PTX: allocating stack frame region for .param "__cudaparmf1__Z16intersectionPlan5Rayon6float3S0_" from 0x4 to 0x1c
GPGPU-Sim PTX: allocating stack frame region for .param "__cudaparmf2__Z16intersectionPlan5Rayon6float3S0_" from 0x1c to 0x28
GPGPU-Sim PTX: allocating stack frame region for .param "__cudaparmf3__Z16intersectionPlan5Rayon6float3S0_" from 0x28 to 0x34
GPGPU-Sim PTX: allocating stack frame region for .param "__cudaretf__Z10getNormale6float3S_" from 0x0 to 0xc
GPGPU-Sim PTX: allocating stack frame region for .param "__cudaparmf1__Z10getNormale6float3S_" from 0xc to 0x18
GPGPU-Sim PTX: allocating stack frame region for .param "__cudaparmf2__Z10getNormale6float3S_" from 0x18 to 0x24
GPGPU-Sim PTX: allocating stack frame region for .param "__cudaretf__Z11getNormaleP6float3" from 0x0 to 0xc
GPGPU-Sim PTX: allocating stack frame region for .param "__cudaparmf1__Z11getNormaleP6float3" from 0xc to 0x18
GPGPU-Sim PTX: allocating stack frame region for .param "__cudaretf__Z14rgbaFloatToInt6float4" from 0x0 to 0x4
GPGPU-Sim PTX: allocating stack frame region for .param "__cudaparmf1__Z14rgbaFloatToInt6float4" from 0x4 to 0x14
GPGPU-Sim PTX: allocating stack frame region for .param "__cudaretf__Z12notShadowRayP4Node6float3S1_f" from 0x0 to 0x4
GPGPU-Sim PTX: allocating stack frame region for .param "__cudaparmf1__Z12notShadowRayP4Node6float3S1_f" from 0x4 to 0xc
GPGPU-Sim PTX: allocating stack frame region for .param "__cudaparmf2__Z12notShadowRayP4Node6float3S1_f" from 0xc to 0x18
GPGPU-Sim PTX: allocating stack frame region for .param "__cudaparmf3__Z12notShadowRayP4Node6float3S1_f" from 0x18 to 0x24
GPGPU-Sim PTX: allocating stack frame region for .param "__cudaparmf4__Z12notShadowRayP4Node6float3S1_f" from 0x24 to 0x28
GPGPU-Sim PTX: allocating stack frame region for .param "__cudaretf__Z15float2int_pow20f" from 0x0 to 0x4
GPGPU-Sim PTX: allocating stack frame region for .param "__cudaparmf1__Z15float2int_pow20f" from 0x4 to 0x8
GPGPU-Sim PTX: allocating stack frame region for .param "__cudaretf__Z15float2int_pow50f" from 0x0 to 0x4
GPGPU-Sim PTX: allocating stack frame region for .param "__cudaparmf1__Z15float2int_pow50f" from 0x4 to 0x8
GPGPU-Sim PTX: allocating stack frame region for .param "__cudaparmf1__ZN4dim3C1Ejjj" from 0x0 to 0x8
GPGPU-Sim PTX: allocating stack frame region for .param "__cudaparmf2__ZN4dim3C1Ejjj" from 0x8 to 0xc
GPGPU-Sim PTX: allocating stack frame region for .param "__cudaparmf3__ZN4dim3C1Ejjj" from 0xc to 0x10
GPGPU-Sim PTX: allocating stack frame region for .param "__cudaparmf4__ZN4dim3C1Ejjj" from 0x10 to 0x14
GPGPU-Sim PTX: instruction assembly for function '_Zmi6float3S_'...   done.
GPGPU-Sim PTX: finding reconvergence points for '_Zmi6float3S_'...
GPGPU-Sim PTX: Finding dominators for '_Zmi6float3S_'...
GPGPU-Sim PTX: Finding immediate dominators for '_Zmi6float3S_'...
GPGPU-Sim PTX: Finding postdominators for '_Zmi6float3S_'...
GPGPU-Sim PTX: Finding immediate postdominators for '_Zmi6float3S_'...
GPGPU-Sim PTX: pre-decoding instructions for '_Zmi6float3S_'...
GPGPU-Sim PTX: reconvergence points for _Zmi6float3S_...
GPGPU-Sim PTX: ... end of reconvergence points for _Zmi6float3S_
GPGPU-Sim PTX: ... done pre-decoding instructions for '_Zmi6float3S_'.
GPGPU-Sim PTX: instruction assembly for function '_Z9normalize6float3'...   done.
GPGPU-Sim PTX: finding reconvergence points for '_Z9normalize6float3'...
GPGPU-Sim PTX: Finding dominators for '_Z9normalize6float3'...
GPGPU-Sim PTX: Finding immediate dominators for '_Z9normalize6float3'...
GPGPU-Sim PTX: Finding postdominators for '_Z9normalize6float3'...
GPGPU-Sim PTX: Finding immediate postdominators for '_Z9normalize6float3'...
GPGPU-Sim PTX: pre-decoding instructions for '_Z9normalize6float3'...
GPGPU-Sim PTX: reconvergence points for _Z9normalize6float3...
GPGPU-Sim PTX: ... end of reconvergence points for _Z9normalize6float3
GPGPU-Sim PTX: ... done pre-decoding instructions for '_Z9normalize6float3'.
GPGPU-Sim PTX: instruction assembly for function '_Z18intersectionSphere5Rayon6float3f'...   done.
GPGPU-Sim PTX: finding reconvergence points for '_Z18intersectionSphere5Rayon6float3f'...
GPGPU-Sim PTX: Finding dominators for '_Z18intersectionSphere5Rayon6float3f'...
GPGPU-Sim PTX: Finding immediate dominators for '_Z18intersectionSphere5Rayon6float3f'...
GPGPU-Sim PTX: Finding postdominators for '_Z18intersectionSphere5Rayon6float3f'...
GPGPU-Sim PTX: Finding immediate postdominators for '_Z18intersectionSphere5Rayon6float3f'...
GPGPU-Sim PTX: pre-decoding instructions for '_Z18intersectionSphere5Rayon6float3f'...
GPGPU-Sim PTX: reconvergence points for _Z18intersectionSphere5Rayon6float3f...
GPGPU-Sim PTX:  1 (potential) branch divergence @  PC=0x250 (_1.ptx:173) @%p2 bra $Lt_2_3074;
GPGPU-Sim PTX:    immediate post dominator      @  PC=0x2c0 (_1.ptx:193) mov.f32 %f39, %f32;
GPGPU-Sim PTX:  2 (potential) branch divergence @  PC=0x260 (_1.ptx:175) bra.uni $Lt_2_2818;
GPGPU-Sim PTX:    immediate post dominator      @  PC=0x2c0 (_1.ptx:193) mov.f32 %f39, %f32;
GPGPU-Sim PTX:  3 (potential) branch divergence @  PC=0x280 (_1.ptx:180) @!%p3 bra $Lt_2_3586;
GPGPU-Sim PTX:    immediate post dominator      @  PC=0x2c0 (_1.ptx:193) mov.f32 %f39, %f32;
GPGPU-Sim PTX:  4 (potential) branch divergence @  PC=0x290 (_1.ptx:182) bra.uni $Lt_2_3330;
GPGPU-Sim PTX:    immediate post dominator      @  PC=0x2c0 (_1.ptx:193) mov.f32 %f39, %f32;
GPGPU-Sim PTX: ... end of reconvergence points for _Z18intersectionSphere5Rayon6float3f
GPGPU-Sim PTX: ... done pre-decoding instructions for '_Z18intersectionSphere5Rayon6float3f'.
GPGPU-Sim PTX: instruction assembly for function '_Z16intersectionPlan5Rayon6float3S0_'...   done.
GPGPU-Sim PTX: finding reconvergence points for '_Z16intersectionPlan5Rayon6float3S0_'...
GPGPU-Sim PTX: Finding dominators for '_Z16intersectionPlan5Rayon6float3S0_'...
GPGPU-Sim PTX: Finding immediate dominators for '_Z16intersectionPlan5Rayon6float3S0_'...
GPGPU-Sim PTX: Finding postdominators for '_Z16intersectionPlan5Rayon6float3S0_'...
GPGPU-Sim PTX: Finding immediate postdominators for '_Z16intersectionPlan5Rayon6float3S0_'...
GPGPU-Sim PTX: pre-decoding instructions for '_Z16intersectionPlan5Rayon6float3S0_'...
GPGPU-Sim PTX: reconvergence points for _Z16intersectionPlan5Rayon6float3S0_...
GPGPU-Sim PTX:  1 (potential) branch divergence @  PC=0x320 (_1.ptx:214) @!%p1 bra $Lt_3_2050;
GPGPU-Sim PTX:    immediate post dominator      @  PC=0x368 (_1.ptx:227) mov.f32 %f14, %f9;
GPGPU-Sim PTX:  2 (potential) branch divergence @  PC=0x330 (_1.ptx:216) bra.uni $Lt_3_1794;
GPGPU-Sim PTX:    immediate post dominator      @  PC=0x368 (_1.ptx:227) mov.f32 %f14, %f9;
GPGPU-Sim PTX: ... end of reconvergence points for _Z16intersectionPlan5Rayon6float3S0_
GPGPU-Sim PTX: ... done pre-decoding instructions for '_Z16intersectionPlan5Rayon6float3S0_'.
GPGPU-Sim PTX: instruction assembly for function '_Z10getNormale6float3S_'...   done.
GPGPU-Sim PTX: finding reconvergence points for '_Z10getNormale6float3S_'...
GPGPU-Sim PTX: Finding dominators for '_Z10getNormale6float3S_'...
GPGPU-Sim PTX: Finding immediate dominators for '_Z10getNormale6float3S_'...
GPGPU-Sim PTX: Finding postdominators for '_Z10getNormale6float3S_'...
GPGPU-Sim PTX: Finding immediate postdominators for '_Z10getNormale6float3S_'...
GPGPU-Sim PTX: pre-decoding instructions for '_Z10getNormale6float3S_'...
GPGPU-Sim PTX: reconvergence points for _Z10getNormale6float3S_...
GPGPU-Sim PTX: ... end of reconvergence points for _Z10getNormale6float3S_
GPGPU-Sim PTX: ... done pre-decoding instructions for '_Z10getNormale6float3S_'.
GPGPU-Sim PTX: instruction assembly for function '_Z11getNormaleP6float3'...   done.
GPGPU-Sim PTX: finding reconvergence points for '_Z11getNormaleP6float3'...
GPGPU-Sim PTX: Finding dominators for '_Z11getNormaleP6float3'...
GPGPU-Sim PTX: Finding immediate dominators for '_Z11getNormaleP6float3'...
GPGPU-Sim PTX: Finding postdominators for '_Z11getNormaleP6float3'...
GPGPU-Sim PTX: Finding immediate postdominators for '_Z11getNormaleP6float3'...
GPGPU-Sim PTX: pre-decoding instructions for '_Z11getNormaleP6float3'...
GPGPU-Sim PTX: reconvergence points for _Z11getNormaleP6float3...
GPGPU-Sim PTX: ... end of reconvergence points for _Z11getNormaleP6float3
GPGPU-Sim PTX: ... done pre-decoding instructions for '_Z11getNormaleP6float3'.
GPGPU-Sim PTX: instruction assembly for function '_Z14rgbaFloatToInt6float4'...   done.
GPGPU-Sim PTX: finding reconvergence points for '_Z14rgbaFloatToInt6float4'...
GPGPU-Sim PTX: Finding dominators for '_Z14rgbaFloatToInt6float4'...
GPGPU-Sim PTX: Finding immediate dominators for '_Z14rgbaFloatToInt6float4'...
GPGPU-Sim PTX: Finding postdominators for '_Z14rgbaFloatToInt6float4'...
GPGPU-Sim PTX: Finding immediate postdominators for '_Z14rgbaFloatToInt6float4'...
GPGPU-Sim PTX: pre-decoding instructions for '_Z14rgbaFloatToInt6float4'...
GPGPU-Sim PTX: reconvergence points for _Z14rgbaFloatToInt6float4...
GPGPU-Sim PTX: ... end of reconvergence points for _Z14rgbaFloatToInt6float4
GPGPU-Sim PTX: ... done pre-decoding instructions for '_Z14rgbaFloatToInt6float4'.
GPGPU-Sim PTX: allocating global region for "cnode" from 0x100 to 0x1a0 (global memory space)
GPGPU-Sim PTX: instruction assembly for function '_Z12notShadowRayP4Node6float3S1_f'...   done.
GPGPU-Sim PTX: finding reconvergence points for '_Z12notShadowRayP4Node6float3S1_f'...
GPGPU-Sim PTX: Finding dominators for '_Z12notShadowRayP4Node6float3S1_f'...
GPGPU-Sim PTX: Finding immediate dominators for '_Z12notShadowRayP4Node6float3S1_f'...
GPGPU-Sim PTX: Finding postdominators for '_Z12notShadowRayP4Node6float3S1_f'...
GPGPU-Sim PTX: Finding immediate postdominators for '_Z12notShadowRayP4Node6float3S1_f'...
GPGPU-Sim PTX: pre-decoding instructions for '_Z12notShadowRayP4Node6float3S1_f'...
GPGPU-Sim PTX: reconvergence points for _Z12notShadowRayP4Node6float3S1_f...
GPGPU-Sim PTX:  1 (potential) branch divergence @  PC=0x638 (_1.ptx:364) @%p1 bra $Lt_7_8450;
GPGPU-Sim PTX:    immediate post dominator      @  PC=0x828 (_1.ptx:441) mov.f32 %f58, 0f00000000;    // 0
GPGPU-Sim PTX:  2 (potential) branch divergence @  PC=0x658 (_1.ptx:369) @!%p2 bra $Lt_7_8962;
GPGPU-Sim PTX:    immediate post dominator      @  PC=0x6b8 (_1.ptx:385) mov.f32 %f28, %f20;
GPGPU-Sim PTX:  3 (potential) branch divergence @  PC=0x668 (_1.ptx:371) bra.uni $Lt_7_8706;
GPGPU-Sim PTX:    immediate post dominator      @  PC=0x6b8 (_1.ptx:385) mov.f32 %f28, %f20;
GPGPU-Sim PTX:  4 (potential) branch divergence @  PC=0x6c0 (_1.ptx:386) bra.uni $Lt_7_8194;
GPGPU-Sim PTX:    immediate post dominator      @  PC=0x828 (_1.ptx:441) mov.f32 %f58, 0f00000000;    // 0
GPGPU-Sim PTX:  5 (potential) branch divergence @  PC=0x7b0 (_1.ptx:418) @%p5 bra $Lt_7_9474;
GPGPU-Sim PTX:    immediate post dominator      @  PC=0x820 (_1.ptx:438) mov.f32 %f28, %f51;
GPGPU-Sim PTX:  6 (potential) branch divergence @  PC=0x7c0 (_1.ptx:420) bra.uni $Lt_7_9730;
GPGPU-Sim PTX:    immediate post dominator      @  PC=0x820 (_1.ptx:438) mov.f32 %f28, %f51;
GPGPU-Sim PTX:  7 (potential) branch divergence @  PC=0x7e0 (_1.ptx:425) @!%p6 bra $Lt_7_9986;
GPGPU-Sim PTX:    immediate post dominator      @  PC=0x820 (_1.ptx:438) mov.f32 %f28, %f51;
GPGPU-Sim PTX:  8 (potential) branch divergence @  PC=0x7f0 (_1.ptx:427) bra.uni $Lt_7_9730;
GPGPU-Sim PTX:    immediate post dominator      @  PC=0x820 (_1.ptx:438) mov.f32 %f28, %f51;
GPGPU-Sim PTX:  9 (potential) branch divergence @  PC=0x838 (_1.ptx:443) @!%p7 bra $Lt_7_10242;
GPGPU-Sim PTX:    immediate post dominator      @  PC=0x8e8 (_1.ptx:468) add.s32 %r1, %r1, 1;
GPGPU-Sim PTX: 10 (potential) branch divergence @  PC=0x8d8 (_1.ptx:463) @!%p8 bra $Lt_7_10242;
GPGPU-Sim PTX:    immediate post dominator      @  PC=0x8e8 (_1.ptx:468) add.s32 %r1, %r1, 1;
GPGPU-Sim PTX: 11 (potential) branch divergence @  PC=0x908 (_1.ptx:472) @%p9 bra $Lt_7_10754;
GPGPU-Sim PTX:    immediate post dominator      @  PC=0x960 (_1.ptx:486) selp.s32 %r10, 1, 0, %p11;
GPGPU-Sim PTX: 12 (potential) branch divergence @  PC=0x930 (_1.ptx:477) @%p10 bra $L_7_7170;
GPGPU-Sim PTX:    immediate post dominator      @  PC=0x960 (_1.ptx:486) selp.s32 %r10, 1, 0, %p11;
GPGPU-Sim PTX: 13 (potential) branch divergence @  PC=0x938 (_1.ptx:478) bra.uni $L_7_7938;
GPGPU-Sim PTX:    immediate post dominator      @  PC=0x960 (_1.ptx:486) selp.s32 %r10, 1, 0, %p11;
GPGPU-Sim PTX: ... end of reconvergence points for _Z12notShadowRayP4Node6float3S1_f
GPGPU-Sim PTX: ... done pre-decoding instructions for '_Z12notShadowRayP4Node6float3S1_f'.
GPGPU-Sim PTX: instruction assembly for function '_Z15float2int_pow20f'...   done.
GPGPU-Sim PTX: finding reconvergence points for '_Z15float2int_pow20f'...
GPGPU-Sim PTX: Finding dominators for '_Z15float2int_pow20f'...
GPGPU-Sim PTX: Finding immediate dominators for '_Z15float2int_pow20f'...
GPGPU-Sim PTX: Finding postdominators for '_Z15float2int_pow20f'...
GPGPU-Sim PTX: Finding immediate postdominators for '_Z15float2int_pow20f'...
GPGPU-Sim PTX: pre-decoding instructions for '_Z15float2int_pow20f'...
GPGPU-Sim PTX: reconvergence points for _Z15float2int_pow20f...
GPGPU-Sim PTX: ... end of reconvergence points for _Z15float2int_pow20f
GPGPU-Sim PTX: ... done pre-decoding instructions for '_Z15float2int_pow20f'.
GPGPU-Sim PTX: instruction assembly for function '_Z15float2int_pow50f'...   done.
GPGPU-Sim PTX: finding reconvergence points for '_Z15float2int_pow50f'...
GPGPU-Sim PTX: Finding dominators for '_Z15float2int_pow50f'...
GPGPU-Sim PTX: Finding immediate dominators for '_Z15float2int_pow50f'...
GPGPU-Sim PTX: Finding postdominators for '_Z15float2int_pow50f'...
GPGPU-Sim PTX: Finding immediate postdominators for '_Z15float2int_pow50f'...
GPGPU-Sim PTX: pre-decoding instructions for '_Z15float2int_pow50f'...
GPGPU-Sim PTX: reconvergence points for _Z15float2int_pow50f...
GPGPU-Sim PTX: ... end of reconvergence points for _Z15float2int_pow50f
GPGPU-Sim PTX: ... done pre-decoding instructions for '_Z15float2int_pow50f'.
GPGPU-Sim PTX: allocating constant region for "MView" from 0x200 to 0x230 (global memory space) 1
GPGPU-Sim PTX: allocating stack frame region for .local "__cuda___cuda_local_var_36206_9_non_const_pile_32240" from 0x0 to 0x50
GPGPU-Sim PTX: instruction assembly for function '_Z6renderPjP4Nodejjff'...   done.
GPGPU-Sim PTX: finding reconvergence points for '_Z6renderPjP4Nodejjff'...
GPGPU-Sim PTX: Finding dominators for '_Z6renderPjP4Nodejjff'...
GPGPU-Sim PTX: Finding immediate dominators for '_Z6renderPjP4Nodejjff'...
GPGPU-Sim PTX: Finding postdominators for '_Z6renderPjP4Nodejjff'...
GPGPU-Sim PTX: Finding immediate postdominators for '_Z6renderPjP4Nodejjff'...
GPGPU-Sim PTX: pre-decoding instructions for '_Z6renderPjP4Nodejjff'...
GPGPU-Sim PTX: reconvergence points for _Z6renderPjP4Nodejjff...
GPGPU-Sim PTX:  1 (potential) branch divergence @  PC=0xdb0 (_1.ptx:663) @%p1 bra $Lt_10_44034;
GPGPU-Sim PTX:    immediate post dominator      @  PC=0x2370 (_1.ptx:1495) exit;
GPGPU-Sim PTX:  2 (potential) branch divergence @  PC=0x1028 (_1.ptx:751) @%p2 bra $Lt_10_45570;
GPGPU-Sim PTX:    immediate post dominator      @  PC=0x11b8 (_1.ptx:815) mov.f32 %f108, 0f00000000;   // 0
GPGPU-Sim PTX:  3 (potential) branch divergence @  PC=0x1048 (_1.ptx:756) @!%p3 bra $Lt_10_46082;
GPGPU-Sim PTX:    immediate post dominator      @  PC=0x1090 (_1.ptx:769) mov.f32 %f87, %f82;
GPGPU-Sim PTX:  4 (potential) branch divergence @  PC=0x1058 (_1.ptx:758) bra.uni $Lt_10_45826;
GPGPU-Sim PTX:    immediate post dominator      @  PC=0x1090 (_1.ptx:769) mov.f32 %f87, %f82;
GPGPU-Sim PTX:  5 (potential) branch divergence @  PC=0x1098 (_1.ptx:770) bra.uni $Lt_10_45314;
GPGPU-Sim PTX:    immediate post dominator      @  PC=0x11b8 (_1.ptx:815) mov.f32 %f108, 0f00000000;   // 0
GPGPU-Sim PTX:  6 (potential) branch divergence @  PC=0x1140 (_1.ptx:793) @%p6 bra $Lt_10_46594;
GPGPU-Sim PTX:    immediate post dominator      @  PC=0x11b0 (_1.ptx:813) mov.f32 %f87, %f101;
GPGPU-Sim PTX:  7 (potential) branch divergence @  PC=0x1150 (_1.ptx:795) bra.uni $Lt_10_46850;
GPGPU-Sim PTX:    immediate post dominator      @  PC=0x11b0 (_1.ptx:813) mov.f32 %f87, %f101;
GPGPU-Sim PTX:  8 (potential) branch divergence @  PC=0x1170 (_1.ptx:800) @!%p7 bra $Lt_10_47106;
GPGPU-Sim PTX:    immediate post dominator      @  PC=0x11b0 (_1.ptx:813) mov.f32 %f87, %f101;
GPGPU-Sim PTX:  9 (potential) branch divergence @  PC=0x1180 (_1.ptx:802) bra.uni $Lt_10_46850;
GPGPU-Sim PTX:    immediate post dominator      @  PC=0x11b0 (_1.ptx:813) mov.f32 %f87, %f101;
GPGPU-Sim PTX: 10 (potential) branch divergence @  PC=0x11f8 (_1.ptx:823) @%p8 bra $Lt_10_47362;
GPGPU-Sim PTX:    immediate post dominator      @  PC=0x1210 (_1.ptx:829) add.s32 %r25, %r25, 1;
GPGPU-Sim PTX: 11 (potential) branch divergence @  PC=0x1230 (_1.ptx:833) @%p9 bra $Lt_10_45058;
GPGPU-Sim PTX:    immediate post dominator      @  PC=0x1238 (_1.ptx:834) mov.f32 %f109, 0f00000000;   // 0
GPGPU-Sim PTX: 12 (potential) branch divergence @  PC=0x1280 (_1.ptx:843) @%p10 bra $Lt_10_48130;
GPGPU-Sim PTX:    immediate post dominator      @  PC=0x2140 (_1.ptx:1416) add.s32 %r23, %r23, 1;
GPGPU-Sim PTX: 13 (potential) branch divergence @  PC=0x1330 (_1.ptx:868) @%p11 bra $Lt_10_48898;
GPGPU-Sim PTX:    immediate post dominator      @  PC=0x13b8 (_1.ptx:888) sub.f32 %f136, %f21, %f119;
GPGPU-Sim PTX: 14 (potential) branch divergence @  PC=0x1350 (_1.ptx:873) bra.uni $Lt_10_48642;
GPGPU-Sim PTX:    immediate post dominator      @  PC=0x13b8 (_1.ptx:888) sub.f32 %f136, %f21, %f119;
GPGPU-Sim PTX: 15 (potential) branch divergence @  PC=0x1430 (_1.ptx:903) @!%p12 bra $Lt_10_49410;
GPGPU-Sim PTX:    immediate post dominator      @  PC=0x1470 (_1.ptx:915) mov.f32 %f153, 0f3d4ccccd;   // 0.05
GPGPU-Sim PTX: 16 (potential) branch divergence @  PC=0x1450 (_1.ptx:908) bra.uni $Lt_10_49154;
GPGPU-Sim PTX:    immediate post dominator      @  PC=0x1470 (_1.ptx:915) mov.f32 %f153, 0f3d4ccccd;   // 0.05
GPGPU-Sim PTX: 17 (potential) branch divergence @  PC=0x1578 (_1.ptx:949) @!%p13 bra $Lt_10_58114;
GPGPU-Sim PTX:    immediate post dominator      @  PC=0x2080 (_1.ptx:1388) add.f32 %f399, %f126, %f126;
GPGPU-Sim PTX: 18 (potential) branch divergence @  PC=0x15c0 (_1.ptx:961) @%p14 bra $Lt_10_49922;
GPGPU-Sim PTX:    immediate post dominator      @  PC=0x17b0 (_1.ptx:1039) mov.f32 %f221, 0f00000000;   // 0
GPGPU-Sim PTX: 19 (potential) branch divergence @  PC=0x15e0 (_1.ptx:966) @!%p15 bra $Lt_10_50434;
GPGPU-Sim PTX:    immediate post dominator      @  PC=0x1638 (_1.ptx:982) mov.f32 %f190, %f183;
GPGPU-Sim PTX: 20 (potential) branch divergence @  PC=0x15f0 (_1.ptx:968) bra.uni $Lt_10_50178;
GPGPU-Sim PTX:    immediate post dominator      @  PC=0x1638 (_1.ptx:982) mov.f32 %f190, %f183;
GPGPU-Sim PTX: 21 (potential) branch divergence @  PC=0x1640 (_1.ptx:983) bra.uni $Lt_10_49666;
GPGPU-Sim PTX:    immediate post dominator      @  PC=0x17b0 (_1.ptx:1039) mov.f32 %f221, 0f00000000;   // 0
GPGPU-Sim PTX: 22 (potential) branch divergence @  PC=0x1738 (_1.ptx:1016) @%p18 bra $Lt_10_50946;
GPGPU-Sim PTX:    immediate post dominator      @  PC=0x17a8 (_1.ptx:1036) mov.f32 %f190, %f214;
GPGPU-Sim PTX: 23 (potential) branch divergence @  PC=0x1748 (_1.ptx:1018) bra.uni $Lt_10_51202;
GPGPU-Sim PTX:    immediate post dominator      @  PC=0x17a8 (_1.ptx:1036) mov.f32 %f190, %f214;
GPGPU-Sim PTX: 24 (potential) branch divergence @  PC=0x1768 (_1.ptx:1023) @!%p19 bra $Lt_10_51458;
GPGPU-Sim PTX:    immediate post dominator      @  PC=0x17a8 (_1.ptx:1036) mov.f32 %f190, %f214;
GPGPU-Sim PTX: 25 (potential) branch divergence @  PC=0x1778 (_1.ptx:1025) bra.uni $Lt_10_51202;
GPGPU-Sim PTX:    immediate post dominator      @  PC=0x17a8 (_1.ptx:1036) mov.f32 %f190, %f214;
GPGPU-Sim PTX: 26 (potential) branch divergence @  PC=0x17c0 (_1.ptx:1041) @!%p20 bra $Lt_10_58370;
GPGPU-Sim PTX:    immediate post dominator      @  PC=0x1828 (_1.ptx:1057) add.s32 %r50, %r50, 1;
GPGPU-Sim PTX: 27 (potential) branch divergence @  PC=0x1818 (_1.ptx:1052) @!%p21 bra $Lt_10_58370;
GPGPU-Sim PTX:    immediate post dominator      @  PC=0x1828 (_1.ptx:1057) add.s32 %r50, %r50, 1;
GPGPU-Sim PTX: 28 (potential) branch divergence @  PC=0x1848 (_1.ptx:1061) @%p22 bra $Lt_10_58882;
GPGPU-Sim PTX:    immediate post dominator      @  PC=0x1880 (_1.ptx:1071) @!%p23 bra $Lt_10_58114;
GPGPU-Sim PTX: 29 (potential) branch divergence @  PC=0x1860 (_1.ptx:1064) @%p23 bra $L_10_42498;
GPGPU-Sim PTX:    immediate post dominator      @  PC=0x1880 (_1.ptx:1071) @!%p23 bra $Lt_10_58114;
GPGPU-Sim PTX: 30 (potential) branch divergence @  PC=0x1868 (_1.ptx:1065) bra.uni $L_10_43266;
GPGPU-Sim PTX:    immediate post dominator      @  PC=0x1880 (_1.ptx:1071) @!%p23 bra $Lt_10_58114;
GPGPU-Sim PTX: 31 (potential) branch divergence @  PC=0x1880 (_1.ptx:1071) @!%p23 bra $Lt_10_58114;
GPGPU-Sim PTX:    immediate post dominator      @  PC=0x2080 (_1.ptx:1388) add.f32 %f399, %f126, %f126;
GPGPU-Sim PTX: 32 (potential) branch divergence @  PC=0x19c8 (_1.ptx:1115) @!%p24 bra $Lt_10_51714;
GPGPU-Sim PTX:    immediate post dominator      @  PC=0x2040 (_1.ptx:1375) mov.f32 %f394, 0f3f4ccccd;   // 0.8
GPGPU-Sim PTX: 33 (potential) branch divergence @  PC=0x19d8 (_1.ptx:1118) bra.uni $LDWendi___isnanf_192_1;
GPGPU-Sim PTX:    immediate post dominator      @  PC=0x2040 (_1.ptx:1375) mov.f32 %f394, 0f3f4ccccd;   // 0.8
GPGPU-Sim PTX: 34 (potential) branch divergence @  PC=0x19f8 (_1.ptx:1124) @!%p25 bra $Lt_10_7682;
GPGPU-Sim PTX:    immediate post dominator      @  PC=0x2040 (_1.ptx:1375) mov.f32 %f394, 0f3f4ccccd;   // 0.8
GPGPU-Sim PTX: 35 (potential) branch divergence @  PC=0x1a00 (_1.ptx:1125) bra.uni $Lt_10_7938;
GPGPU-Sim PTX:    immediate post dominator      @  PC=0x1a20 (_1.ptx:1133) mov.f32 %f272, 0f7f800000;   // ((1.0F)/(0.0F))
GPGPU-Sim PTX: 36 (potential) branch divergence @  PC=0x1a18 (_1.ptx:1130) bra.uni $LDWendi___isnanf_192_1;
GPGPU-Sim PTX:    immediate post dominator      @  PC=0x2040 (_1.ptx:1375) mov.f32 %f394, 0f3f4ccccd;   // 0.8
GPGPU-Sim PTX: 37 (potential) branch divergence @  PC=0x1a30 (_1.ptx:1135) @!%p26 bra $Lt_10_52226;
GPGPU-Sim PTX:    immediate post dominator      @  PC=0x2040 (_1.ptx:1375) mov.f32 %f394, 0f3f4ccccd;   // 0.8
GPGPU-Sim PTX: 38 (potential) branch divergence @  PC=0x1a40 (_1.ptx:1138) bra.uni $LDWendi___isnanf_192_1;
GPGPU-Sim PTX:    immediate post dominator      @  PC=0x2040 (_1.ptx:1375) mov.f32 %f394, 0f3f4ccccd;   // 0.8
GPGPU-Sim PTX: 39 (potential) branch divergence @  PC=0x1a58 (_1.ptx:1142) @!%p27 bra $Lt_10_52738;
GPGPU-Sim PTX:    immediate post dominator      @  PC=0x2040 (_1.ptx:1375) mov.f32 %f394, 0f3f4ccccd;   // 0.8
GPGPU-Sim PTX: 40 (potential) branch divergence @  PC=0x1ab8 (_1.ptx:1155) bra.uni $LDWendi___isnanf_192_1;
GPGPU-Sim PTX:    immediate post dominator      @  PC=0x2040 (_1.ptx:1375) mov.f32 %f394, 0f3f4ccccd;   // 0.8
GPGPU-Sim PTX: 41 (potential) branch divergence @  PC=0x1ad0 (_1.ptx:1159) @!%p29 bra $Lt_10_53250;
GPGPU-Sim PTX:    immediate post dominator      @  PC=0x2040 (_1.ptx:1375) mov.f32 %f394, 0f3f4ccccd;   // 0.8
GPGPU-Sim PTX: 42 (potential) branch divergence @  PC=0x1b20 (_1.ptx:1170) @!%p30 bra $Lt_10_53762;
GPGPU-Sim PTX:    immediate post dominator      @  PC=0x1b40 (_1.ptx:1177) mov.f32 %f268, %f284;
GPGPU-Sim PTX: 43 (potential) branch divergence @  PC=0x1b48 (_1.ptx:1178) bra.uni $LDWendi___isnanf_192_1;
GPGPU-Sim PTX:    immediate post dominator      @  PC=0x2040 (_1.ptx:1375) mov.f32 %f394, 0f3f4ccccd;   // 0.8
GPGPU-Sim PTX: 44 (potential) branch divergence @  PC=0x1b60 (_1.ptx:1183) @!%p31 bra $Lt_10_59394;
GPGPU-Sim PTX:    immediate post dominator      @  PC=0x2040 (_1.ptx:1375) mov.f32 %f394, 0f3f4ccccd;   // 0.8
GPGPU-Sim PTX: 45 (potential) branch divergence @  PC=0x1b88 (_1.ptx:1188) @!%p32 bra $Lt_10_59394;
GPGPU-Sim PTX:    immediate post dominator      @  PC=0x2040 (_1.ptx:1375) mov.f32 %f394, 0f3f4ccccd;   // 0.8
GPGPU-Sim PTX: 46 (potential) branch divergence @  PC=0x1ba0 (_1.ptx:1192) bra.uni $LDWendi___isnanf_192_1;
GPGPU-Sim PTX:    immediate post dominator      @  PC=0x2040 (_1.ptx:1375) mov.f32 %f394, 0f3f4ccccd;   // 0.8
GPGPU-Sim PTX: 47 (potential) branch divergence @  PC=0x1bd8 (_1.ptx:1202) @%p33 bra $Lt_10_54530;
GPGPU-Sim PTX:    immediate post dominator      @  PC=0x1c20 (_1.ptx:1216) sub.s32 %r64, %r64, 127;
GPGPU-Sim PTX: 48 (potential) branch divergence @  PC=0x1c10 (_1.ptx:1211) bra.uni $Lt_10_54274;
GPGPU-Sim PTX:    immediate post dominator      @  PC=0x1c20 (_1.ptx:1216) sub.s32 %r64, %r64, 127;
GPGPU-Sim PTX: 49 (potential) branch divergence @  PC=0x1c58 (_1.ptx:1224) @!%p34 bra $Lt_10_54786;
GPGPU-Sim PTX:    immediate post dominator      @  PC=0x1c78 (_1.ptx:1232) mov.f32 %f302, 0fbf800000;   // -1
GPGPU-Sim PTX: 50 (potential) branch divergence @  PC=0x1eb0 (_1.ptx:1312) @%p35 bra $Lt_10_55298;
GPGPU-Sim PTX:    immediate post dominator      @  PC=0x1ed8 (_1.ptx:1321) mov.f32 %f367, %f365;
GPGPU-Sim PTX: 51 (potential) branch divergence @  PC=0x1f98 (_1.ptx:1346) @!%p38 bra $Lt_10_55810;
GPGPU-Sim PTX:    immediate post dominator      @  PC=0x1fa8 (_1.ptx:1351) mov.f32 %f284, %f386;
GPGPU-Sim PTX: 52 (potential) branch divergence @  PC=0x2018 (_1.ptx:1365) @%p39 bra $Lt_10_56322;
GPGPU-Sim PTX:    immediate post dominator      @  PC=0x2038 (_1.ptx:1372) mov.f32 %f268, %f284;
GPGPU-Sim PTX: 53 (potential) branch divergence @  PC=0x2158 (_1.ptx:1419) @%p40 bra $L_10_42242;
GPGPU-Sim PTX:    immediate post dominator      @  PC=0x2170 (_1.ptx:1424) sub.s32 %r86, %r24, 1;
GPGPU-Sim PTX: 54 (potential) branch divergence @  PC=0x2168 (_1.ptx:1421) @%p41 bra $L_10_41474;
GPGPU-Sim PTX:    immediate post dominator      @  PC=0x2170 (_1.ptx:1424) sub.s32 %r86, %r24, 1;
GPGPU-Sim PTX: 55 (potential) branch divergence @  PC=0x2190 (_1.ptx:1428) @%p42 bra $Lt_10_56834;
GPGPU-Sim PTX:    immediate post dominator      @  PC=0x2288 (_1.ptx:1464) ld.global.u32 %r92, [%rd4+0];
GPGPU-Sim PTX: 56 (potential) branch divergence @  PC=0x2280 (_1.ptx:1461) @%p43 bra $Lt_10_57346;
GPGPU-Sim PTX:    immediate post dominator      @  PC=0x2288 (_1.ptx:1464) ld.global.u32 %r92, [%rd4+0];
GPGPU-Sim PTX: ... end of reconvergence points for _Z6renderPjP4Nodejjff
GPGPU-Sim PTX: ... done pre-decoding instructions for '_Z6renderPjP4Nodejjff'.
GPGPU-Sim PTX: instruction assembly for function '_ZN4dim3C1Ejjj'...   done.
GPGPU-Sim PTX: finding reconvergence points for '_ZN4dim3C1Ejjj'...
GPGPU-Sim PTX: Finding dominators for '_ZN4dim3C1Ejjj'...
GPGPU-Sim PTX: Finding immediate dominators for '_ZN4dim3C1Ejjj'...
GPGPU-Sim PTX: Finding postdominators for '_ZN4dim3C1Ejjj'...
GPGPU-Sim PTX: Finding immediate postdominators for '_ZN4dim3C1Ejjj'...
GPGPU-Sim PTX: pre-decoding instructions for '_ZN4dim3C1Ejjj'...
GPGPU-Sim PTX: reconvergence points for _ZN4dim3C1Ejjj...
GPGPU-Sim PTX: ... end of reconvergence points for _ZN4dim3C1Ejjj
GPGPU-Sim PTX: ... done pre-decoding instructions for '_ZN4dim3C1Ejjj'.
GPGPU-Sim PTX: finished parsing EMBEDDED .ptx file _1.ptx
Adding _cuobjdump_1.ptx with cubin handle 1
GPGPU-Sim PTX: extracting embedded .ptx to temporary file "_ptx_Q4KH37"
Running: cat _ptx_Q4KH37 | sed 's/.version 1.5/.version 1.4/' | sed 's/, texmode_independent//' | sed 's/\(\.extern \.const\[1\] .b8 \w\+\)\[\]/\1\[1\]/' | sed 's/const\[.\]/const\[0\]/g' > _ptx2_v7vVYm
GPGPU-Sim PTX: generating ptxinfo using "$CUDA_INSTALL_PATH/bin/ptxas --gpu-name=sm_20 -v _ptx2_v7vVYm --output-file  /dev/null 2> _ptx_Q4KH37info"
GPGPU-Sim PTX: Kernel '_Z6renderPjP4Nodejjff' : regs=45, lmem=4, smem=0, cmem=180
GPGPU-Sim PTX: removing ptxinfo using "rm -f _ptx_Q4KH37 _ptx2_v7vVYm _ptx_Q4KH37info"
GPGPU-Sim PTX: loading globals with explicit initializers... 
GPGPU-Sim PTX: finished loading globals (0 bytes total).
GPGPU-Sim PTX: loading constants with explicit initializers...  done.
GPGPU-Sim PTX: __cudaRegisterVar: hostVar = 0x632880; deviceAddress = MView; deviceName = MView
GPGPU-Sim PTX: __cudaRegisterVar: Registering const memory space of 48 bytes
GPGPU-Sim PTX registering constant MView (48 bytes) to name mapping
GPGPU-Sim PTX: __cudaRegisterVar: hostVar = 0x6328c0; deviceAddress = cnode; deviceName = cnode
GPGPU-Sim PTX: __cudaRegisterVar: Registering const memory space of 160 bytes
GPGPU-Sim PTX registering constant cnode (160 bytes) to name mapping
GPGPU-Sim PTX: cudaMemcpyToSymbol: symbol = 0x6328c0
GPGPU-Sim PTX: starting gpgpu_ptx_sim_memcpy_symbol with hostVar 0x0x6328c0
GPGPU-Sim PTX: gpgpu_ptx_sim_memcpy_symbol: Found PTX symbol w/ hostVar=0x6328c0
GPGPU-Sim PTX: gpgpu_ptx_sim_memcpy_symbol: copying const memory 160 bytes  to  symbol cnode+0 @0x100 ...
GPGPU-Sim PTX: cudaMemcpyToSymbol: symbol = 0x632880
GPGPU-Sim PTX: starting gpgpu_ptx_sim_memcpy_symbol with hostVar 0x0x632880
GPGPU-Sim PTX: gpgpu_ptx_sim_memcpy_symbol: Found PTX symbol w/ hostVar=0x632880
GPGPU-Sim PTX: gpgpu_ptx_sim_memcpy_symbol: copying const memory 48 bytes  to  symbol MView+0 @0x200 ...

GPGPU-Sim PTX: cudaLaunch for 0x0x40d033 (mode=performance simulation) on stream 0
GPGPU-Sim PTX: pushing kernel '_Z6renderPjP4Nodejjff' to stream 0, gridDim= (16,32,1) blockDim = (16,8,1) 
kernel '_Z6renderPjP4Nodejjff' transfer to GPU hardware scheduler
GPGPU-Sim uArch: Shader 1 bind to kernel 1 '_Z6renderPjP4Nodejjff'
GPGPU-Sim uArch: CTA/core = 5, limited by: regs
GPGPU-Sim uArch: core:  1, cta: 0 initialized @(1,0)
GPGPU-Sim uArch: Shader 2 bind to kernel 1 '_Z6renderPjP4Nodejjff'
GPGPU-Sim uArch: core:  2, cta: 0 initialized @(1,0)
GPGPU-Sim uArch: Shader 3 bind to kernel 1 '_Z6renderPjP4Nodejjff'
GPGPU-Sim uArch: core:  3, cta: 0 initialized @(1,0)
GPGPU-Sim uArch: Shader 4 bind to kernel 1 '_Z6renderPjP4Nodejjff'
GPGPU-Sim uArch: core:  4, cta: 0 initialized @(1,0)
GPGPU-Sim uArch: Shader 5 bind to kernel 1 '_Z6renderPjP4Nodejjff'
GPGPU-Sim uArch: core:  5, cta: 0 initialized @(1,0)
GPGPU-Sim uArch: Shader 6 bind to kernel 1 '_Z6renderPjP4Nodejjff'
GPGPU-Sim uArch: core:  6, cta: 0 initialized @(1,0)
GPGPU-Sim uArch: Shader 7 bind to kernel 1 '_Z6renderPjP4Nodejjff'
GPGPU-Sim uArch: core:  7, cta: 0 initialized @(1,0)
GPGPU-Sim uArch: Shader 8 bind to kernel 1 '_Z6renderPjP4Nodejjff'
GPGPU-Sim uArch: core:  8, cta: 0 initialized @(1,0)
GPGPU-Sim uArch: Shader 9 bind to kernel 1 '_Z6renderPjP4Nodejjff'
GPGPU-Sim uArch: core:  9, cta: 0 initialized @(1,0)
GPGPU-Sim uArch: Shader 10 bind to kernel 1 '_Z6renderPjP4Nodejjff'
GPGPU-Sim uArch: core: 10, cta: 0 initialized @(1,0)
GPGPU-Sim uArch: Shader 11 bind to kernel 1 '_Z6renderPjP4Nodejjff'
GPGPU-Sim uArch: core: 11, cta: 0 initialized @(1,0)
GPGPU-Sim uArch: Shader 12 bind to kernel 1 '_Z6renderPjP4Nodejjff'
GPGPU-Sim uArch: core: 12, cta: 0 initialized @(1,0)
GPGPU-Sim uArch: Shader 13 bind to kernel 1 '_Z6renderPjP4Nodejjff'
GPGPU-Sim uArch: core: 13, cta: 0 initialized @(1,0)
GPGPU-Sim uArch: Shader 14 bind to kernel 1 '_Z6renderPjP4Nodejjff'
GPGPU-Sim uArch: core: 14, cta: 0 initialized @(1,0)
GPGPU-Sim uArch: Shader 0 bind to kernel 1 '_Z6renderPjP4Nodejjff'
GPGPU-Sim uArch: core:  0, cta: 0 initialized @(1,0)
GPGPU-Sim uArch: core:  1, cta: 1 initialized @(2,0)
GPGPU-Sim uArch: core:  2, cta: 1 initialized @(2,0)
GPGPU-Sim uArch: core:  3, cta: 1 initialized @(2,0)
GPGPU-Sim uArch: core:  4, cta: 1 initialized @(2,0)
GPGPU-Sim uArch: core:  5, cta: 1 initialized @(2,0)
GPGPU-Sim uArch: core:  6, cta: 1 initialized @(2,0)
GPGPU-Sim uArch: core:  7, cta: 1 initialized @(2,0)
GPGPU-Sim uArch: core:  8, cta: 1 initialized @(2,0)
GPGPU-Sim uArch: core:  9, cta: 1 initialized @(2,0)
GPGPU-Sim uArch: core: 10, cta: 1 initialized @(2,0)
GPGPU-Sim uArch: core: 11, cta: 1 initialized @(2,0)
GPGPU-Sim uArch: core: 12, cta: 1 initialized @(2,0)
GPGPU-Sim uArch: core: 13, cta: 1 initialized @(2,0)
GPGPU-Sim uArch: core: 14, cta: 1 initialized @(2,0)
GPGPU-Sim uArch: core:  0, cta: 1 initialized @(2,0)
GPGPU-Sim uArch: core:  1, cta: 2 initialized @(3,0)
GPGPU-Sim uArch: core:  2, cta: 2 initialized @(3,0)
GPGPU-Sim uArch: core:  3, cta: 2 initialized @(3,0)
GPGPU-Sim uArch: core:  4, cta: 2 initialized @(3,0)
GPGPU-Sim uArch: core:  5, cta: 2 initialized @(3,0)
GPGPU-Sim uArch: core:  6, cta: 2 initialized @(3,0)
GPGPU-Sim uArch: core:  7, cta: 2 initialized @(3,0)
GPGPU-Sim uArch: core:  8, cta: 2 initialized @(3,0)
GPGPU-Sim uArch: core:  9, cta: 2 initialized @(3,0)
GPGPU-Sim uArch: core: 10, cta: 2 initialized @(3,0)
GPGPU-Sim uArch: core: 11, cta: 2 initialized @(3,0)
GPGPU-Sim uArch: core: 12, cta: 2 initialized @(3,0)
GPGPU-Sim uArch: core: 13, cta: 2 initialized @(3,0)
GPGPU-Sim uArch: core: 14, cta: 2 initialized @(3,0)
GPGPU-Sim uArch: core:  0, cta: 2 initialized @(3,0)
GPGPU-Sim uArch: core:  1, cta: 3 initialized @(4,0)
GPGPU-Sim uArch: core:  2, cta: 3 initialized @(4,0)
GPGPU-Sim uArch: core:  3, cta: 3 initialized @(4,0)
GPGPU-Sim uArch: core:  4, cta: 3 initialized @(4,0)
GPGPU-Sim uArch: core:  5, cta: 3 initialized @(4,0)
GPGPU-Sim uArch: core:  6, cta: 3 initialized @(4,0)
GPGPU-Sim uArch: core:  7, cta: 3 initialized @(4,0)
GPGPU-Sim uArch: core:  8, cta: 3 initialized @(4,0)
GPGPU-Sim uArch: core:  9, cta: 3 initialized @(4,0)
GPGPU-Sim uArch: core: 10, cta: 3 initialized @(4,0)
GPGPU-Sim uArch: core: 11, cta: 3 initialized @(4,0)
GPGPU-Sim uArch: core: 12, cta: 3 initialized @(4,0)
GPGPU-Sim uArch: core: 13, cta: 3 initialized @(4,0)
GPGPU-Sim uArch: core: 14, cta: 3 initialized @(4,0)
GPGPU-Sim uArch: core:  0, cta: 3 initialized @(4,0)
GPGPU-Sim uArch: core:  1, cta: 4 initialized @(5,0)
GPGPU-Sim uArch: core:  2, cta: 4 initialized @(5,0)
GPGPU-Sim uArch: core:  3, cta: 4 initialized @(5,0)
GPGPU-Sim uArch: core:  4, cta: 4 initialized @(5,0)
GPGPU-Sim uArch: core:  5, cta: 4 initialized @(5,0)
GPGPU-Sim uArch: core:  6, cta: 4 initialized @(5,0)
GPGPU-Sim uArch: core:  7, cta: 4 initialized @(5,0)
GPGPU-Sim uArch: core:  8, cta: 4 initialized @(5,0)
GPGPU-Sim uArch: core:  9, cta: 4 initialized @(5,0)
GPGPU-Sim uArch: core: 10, cta: 4 initialized @(5,0)
GPGPU-Sim uArch: core: 11, cta: 4 initialized @(5,0)
GPGPU-Sim uArch: core: 12, cta: 4 initialized @(5,0)
GPGPU-Sim uArch: core: 13, cta: 4 initialized @(5,0)
GPGPU-Sim uArch: core: 14, cta: 4 initialized @(5,0)
GPGPU-Sim uArch: core:  0, cta: 4 initialized @(5,0)
GPGPU-Sim uArch: cycles simulated: 500  inst.: 36032 (ipc=72.1) sim_rate=36032 (inst/sec) elapsed = 0:0:00:01 / Tue Apr 16 16:54:33 2019
GPGPU-Sim uArch: cycles simulated: 2000  inst.: 84160 (ipc=42.1) sim_rate=42080 (inst/sec) elapsed = 0:0:00:02 / Tue Apr 16 16:54:34 2019
GPGPU-Sim PTX: 100000 instructions simulated : ctaid=(7,0,0) tid=(15,1,0)
GPGPU-Sim PTX: 200000 instructions simulated : ctaid=(7,3,0) tid=(15,5,0)
GPGPU-Sim uArch: cycles simulated: 4000  inst.: 224608 (ipc=56.2) sim_rate=74869 (inst/sec) elapsed = 0:0:00:03 / Tue Apr 16 16:54:35 2019
GPGPU-Sim PTX: 300000 instructions simulated : ctaid=(2,0,0) tid=(15,1,0)
GPGPU-Sim uArch: cycles simulated: 5500  inst.: 363424 (ipc=66.1) sim_rate=90856 (inst/sec) elapsed = 0:0:00:04 / Tue Apr 16 16:54:36 2019
GPGPU-Sim PTX: 400000 instructions simulated : ctaid=(4,0,0) tid=(15,7,0)
GPGPU-Sim PTX: 500000 instructions simulated : ctaid=(14,1,0) tid=(15,5,0)
GPGPU-Sim PTX: 600000 instructions simulated : ctaid=(14,3,0) tid=(15,5,0)
GPGPU-Sim uArch: cycles simulated: 6500  inst.: 612640 (ipc=94.3) sim_rate=122528 (inst/sec) elapsed = 0:0:00:05 / Tue Apr 16 16:54:37 2019
GPGPU-Sim PTX: 700000 instructions simulated : ctaid=(7,4,0) tid=(15,1,0)
GPGPU-Sim PTX: 800000 instructions simulated : ctaid=(1,0,0) tid=(15,7,0)
GPGPU-Sim PTX: 900000 instructions simulated : ctaid=(5,1,0) tid=(15,3,0)
GPGPU-Sim uArch: cycles simulated: 8000  inst.: 926272 (ipc=115.8) sim_rate=154378 (inst/sec) elapsed = 0:0:00:06 / Tue Apr 16 16:54:38 2019
GPGPU-Sim PTX: 1000000 instructions simulated : ctaid=(4,2,0) tid=(15,7,0)
GPGPU-Sim PTX: 1100000 instructions simulated : ctaid=(13,2,0) tid=(15,7,0)
GPGPU-Sim uArch: cycles simulated: 8500  inst.: 1091968 (ipc=128.5) sim_rate=155995 (inst/sec) elapsed = 0:0:00:07 / Tue Apr 16 16:54:39 2019
GPGPU-Sim PTX: 1200000 instructions simulated : ctaid=(4,2,0) tid=(15,5,0)
GPGPU-Sim PTX: 1300000 instructions simulated : ctaid=(14,3,0) tid=(15,3,0)
GPGPU-Sim PTX: 1400000 instructions simulated : ctaid=(6,0,0) tid=(15,7,0)
GPGPU-Sim PTX: 1500000 instructions simulated : ctaid=(7,3,0) tid=(15,1,0)
GPGPU-Sim uArch: cycles simulated: 9500  inst.: 1536896 (ipc=161.8) sim_rate=192112 (inst/sec) elapsed = 0:0:00:08 / Tue Apr 16 16:54:40 2019
GPGPU-Sim PTX: 1600000 instructions simulated : ctaid=(13,3,0) tid=(15,1,0)
GPGPU-Sim PTX: 1700000 instructions simulated : ctaid=(0,1,0) tid=(15,3,0)
GPGPU-Sim PTX: 1800000 instructions simulated : ctaid=(13,1,0) tid=(15,1,0)
GPGPU-Sim PTX: 1900000 instructions simulated : ctaid=(8,2,0) tid=(15,5,0)
GPGPU-Sim PTX: 2000000 instructions simulated : ctaid=(12,0,0) tid=(15,7,0)
GPGPU-Sim PTX: 2100000 instructions simulated : ctaid=(8,1,0) tid=(15,5,0)
GPGPU-Sim PTX: 2200000 instructions simulated : ctaid=(3,2,0) tid=(15,5,0)
GPGPU-Sim uArch: cycles simulated: 10500  inst.: 2199360 (ipc=209.5) sim_rate=244373 (inst/sec) elapsed = 0:0:00:09 / Tue Apr 16 16:54:41 2019
GPGPU-Sim PTX: 2300000 instructions simulated : ctaid=(0,1,0) tid=(15,5,0)
GPGPU-Sim PTX: 2400000 instructions simulated : ctaid=(1,4,0) tid=(15,5,0)
GPGPU-Sim PTX: 2500000 instructions simulated : ctaid=(4,3,0) tid=(15,3,0)
GPGPU-Sim uArch: cycles simulated: 11000  inst.: 2521728 (ipc=229.2) sim_rate=252172 (inst/sec) elapsed = 0:0:00:10 / Tue Apr 16 16:54:42 2019
GPGPU-Sim PTX: 2600000 instructions simulated : ctaid=(5,3,0) tid=(15,5,0)
GPGPU-Sim PTX: 2700000 instructions simulated : ctaid=(11,0,0) tid=(15,1,0)
GPGPU-Sim PTX: 2800000 instructions simulated : ctaid=(10,0,0) tid=(15,7,0)
GPGPU-Sim PTX: 2900000 instructions simulated : ctaid=(13,2,0) tid=(15,3,0)
GPGPU-Sim PTX: 3000000 instructions simulated : ctaid=(6,1,0) tid=(15,5,0)
GPGPU-Sim PTX: 3100000 instructions simulated : ctaid=(3,4,0) tid=(15,1,0)
GPGPU-Sim PTX: 3200000 instructions simulated : ctaid=(5,1,0) tid=(15,3,0)
GPGPU-Sim uArch: cycles simulated: 12000  inst.: 3198432 (ipc=266.5) sim_rate=290766 (inst/sec) elapsed = 0:0:00:11 / Tue Apr 16 16:54:43 2019
GPGPU-Sim PTX: 3300000 instructions simulated : ctaid=(11,3,0) tid=(15,7,0)
GPGPU-Sim PTX: 3400000 instructions simulated : ctaid=(0,4,0) tid=(15,7,0)
GPGPU-Sim uArch: cycles simulated: 12500  inst.: 3382176 (ipc=270.6) sim_rate=281848 (inst/sec) elapsed = 0:0:00:12 / Tue Apr 16 16:54:44 2019
GPGPU-Sim PTX: 3500000 instructions simulated : ctaid=(11,0,0) tid=(15,3,0)
GPGPU-Sim PTX: 3600000 instructions simulated : ctaid=(14,0,0) tid=(15,3,0)
GPGPU-Sim PTX: 3700000 instructions simulated : ctaid=(10,3,0) tid=(15,5,0)
GPGPU-Sim uArch: cycles simulated: 13500  inst.: 3667936 (ipc=271.7) sim_rate=282148 (inst/sec) elapsed = 0:0:00:13 / Tue Apr 16 16:54:45 2019
GPGPU-Sim PTX: 3800000 instructions simulated : ctaid=(2,0,0) tid=(15,7,0)
GPGPU-Sim PTX: 3900000 instructions simulated : ctaid=(4,2,0) tid=(15,1,0)
GPGPU-Sim PTX: 4000000 instructions simulated : ctaid=(7,4,0) tid=(15,3,0)
GPGPU-Sim PTX: 4100000 instructions simulated : ctaid=(3,2,0) tid=(15,3,0)
GPGPU-Sim PTX: 4200000 instructions simulated : ctaid=(1,4,0) tid=(15,5,0)
GPGPU-Sim uArch: cycles simulated: 15000  inst.: 4111776 (ipc=274.1) sim_rate=293698 (inst/sec) elapsed = 0:0:00:14 / Tue Apr 16 16:54:46 2019
GPGPU-Sim PTX: 4300000 instructions simulated : ctaid=(11,2,0) tid=(15,7,0)
GPGPU-Sim PTX: 4400000 instructions simulated : ctaid=(1,4,0) tid=(15,1,0)
GPGPU-Sim PTX: 4500000 instructions simulated : ctaid=(8,3,0) tid=(15,3,0)
GPGPU-Sim PTX: 4600000 instructions simulated : ctaid=(3,2,0) tid=(12,0,0)
GPGPU-Sim PTX: 4700000 instructions simulated : ctaid=(8,0,0) tid=(6,2,0)
GPGPU-Sim uArch: cycles simulated: 16000  inst.: 4590336 (ipc=286.9) sim_rate=306022 (inst/sec) elapsed = 0:0:00:15 / Tue Apr 16 16:54:47 2019
GPGPU-Sim PTX: 4800000 instructions simulated : ctaid=(7,0,0) tid=(15,2,0)
GPGPU-Sim PTX: 4900000 instructions simulated : ctaid=(8,2,0) tid=(15,2,0)
GPGPU-Sim PTX: 5000000 instructions simulated : ctaid=(1,0,0) tid=(15,0,0)
GPGPU-Sim PTX: 5100000 instructions simulated : ctaid=(6,3,0) tid=(15,2,0)
GPGPU-Sim PTX: 5200000 instructions simulated : ctaid=(2,0,0) tid=(15,4,0)
GPGPU-Sim PTX: 5300000 instructions simulated : ctaid=(6,3,0) tid=(15,0,0)
GPGPU-Sim PTX: 5400000 instructions simulated : ctaid=(8,2,0) tid=(8,2,0)
GPGPU-Sim PTX: 5500000 instructions simulated : ctaid=(3,3,0) tid=(9,0,0)
GPGPU-Sim uArch: cycles simulated: 17000  inst.: 5380171 (ipc=316.5) sim_rate=336260 (inst/sec) elapsed = 0:0:00:16 / Tue Apr 16 16:54:48 2019
GPGPU-Sim PTX: 5600000 instructions simulated : ctaid=(0,4,0) tid=(3,1,0)
GPGPU-Sim PTX: 5700000 instructions simulated : ctaid=(8,0,0) tid=(5,7,0)
GPGPU-Sim PTX: 5800000 instructions simulated : ctaid=(2,3,0) tid=(4,3,0)
GPGPU-Sim uArch: cycles simulated: 17500  inst.: 5708264 (ipc=326.2) sim_rate=335780 (inst/sec) elapsed = 0:0:00:17 / Tue Apr 16 16:54:49 2019
GPGPU-Sim PTX: 5900000 instructions simulated : ctaid=(12,1,0) tid=(7,5,0)
GPGPU-Sim PTX: 6000000 instructions simulated : ctaid=(14,3,0) tid=(15,6,0)
GPGPU-Sim PTX: 6100000 instructions simulated : ctaid=(10,4,0) tid=(11,1,0)
GPGPU-Sim PTX: 6200000 instructions simulated : ctaid=(2,1,0) tid=(11,3,0)
GPGPU-Sim uArch: cycles simulated: 18500  inst.: 6114308 (ipc=330.5) sim_rate=339683 (inst/sec) elapsed = 0:0:00:18 / Tue Apr 16 16:54:50 2019
GPGPU-Sim PTX: 6300000 instructions simulated : ctaid=(11,2,0) tid=(11,1,0)
GPGPU-Sim PTX: 6400000 instructions simulated : ctaid=(8,2,0) tid=(11,1,0)
GPGPU-Sim PTX: 6500000 instructions simulated : ctaid=(14,2,0) tid=(6,2,0)
GPGPU-Sim uArch: cycles simulated: 20000  inst.: 6354756 (ipc=317.7) sim_rate=334460 (inst/sec) elapsed = 0:0:00:19 / Tue Apr 16 16:54:51 2019
GPGPU-Sim PTX: 6600000 instructions simulated : ctaid=(1,4,0) tid=(11,3,0)
GPGPU-Sim PTX: 6700000 instructions simulated : ctaid=(11,3,0) tid=(11,5,0)
GPGPU-Sim PTX: 6800000 instructions simulated : ctaid=(3,0,0) tid=(11,1,0)
GPGPU-Sim PTX: 6900000 instructions simulated : ctaid=(14,0,0) tid=(11,3,0)
GPGPU-Sim uArch: cycles simulated: 21000  inst.: 6796644 (ipc=323.6) sim_rate=339832 (inst/sec) elapsed = 0:0:00:20 / Tue Apr 16 16:54:52 2019
GPGPU-Sim PTX: 7000000 instructions simulated : ctaid=(7,4,0) tid=(11,1,0)
GPGPU-Sim PTX: 7100000 instructions simulated : ctaid=(13,1,0) tid=(11,7,0)
GPGPU-Sim PTX: 7200000 instructions simulated : ctaid=(9,2,0) tid=(11,5,0)
GPGPU-Sim uArch: cycles simulated: 22000  inst.: 7102468 (ipc=322.8) sim_rate=338212 (inst/sec) elapsed = 0:0:00:21 / Tue Apr 16 16:54:53 2019
GPGPU-Sim PTX: 7300000 instructions simulated : ctaid=(4,2,0) tid=(11,5,0)
GPGPU-Sim PTX: 7400000 instructions simulated : ctaid=(4,2,0) tid=(11,3,0)
GPGPU-Sim PTX: 7500000 instructions simulated : ctaid=(0,2,0) tid=(11,3,0)
GPGPU-Sim PTX: 7600000 instructions simulated : ctaid=(9,0,0) tid=(11,1,0)
GPGPU-Sim uArch: cycles simulated: 23000  inst.: 7467972 (ipc=324.7) sim_rate=339453 (inst/sec) elapsed = 0:0:00:22 / Tue Apr 16 16:54:54 2019
GPGPU-Sim PTX: 7700000 instructions simulated : ctaid=(10,3,0) tid=(11,5,0)
GPGPU-Sim PTX: 7800000 instructions simulated : ctaid=(9,3,0) tid=(11,3,0)
GPGPU-Sim PTX: 7900000 instructions simulated : ctaid=(13,1,0) tid=(11,3,0)
GPGPU-Sim PTX: 8000000 instructions simulated : ctaid=(12,0,0) tid=(11,3,0)
GPGPU-Sim uArch: cycles simulated: 24000  inst.: 7829156 (ipc=326.2) sim_rate=340398 (inst/sec) elapsed = 0:0:00:23 / Tue Apr 16 16:54:55 2019
GPGPU-Sim PTX: 8100000 instructions simulated : ctaid=(0,1,0) tid=(11,3,0)
GPGPU-Sim PTX: 8200000 instructions simulated : ctaid=(1,0,0) tid=(11,5,0)
GPGPU-Sim PTX: 8300000 instructions simulated : ctaid=(11,3,0) tid=(11,5,0)
GPGPU-Sim PTX: 8400000 instructions simulated : ctaid=(8,3,0) tid=(11,1,0)
GPGPU-Sim PTX: 8500000 instructions simulated : ctaid=(6,3,0) tid=(11,1,0)
GPGPU-Sim PTX: 8600000 instructions simulated : ctaid=(11,1,0) tid=(11,5,0)
GPGPU-Sim PTX: 8700000 instructions simulated : ctaid=(2,0,0) tid=(15,4,0)
GPGPU-Sim PTX: 8800000 instructions simulated : ctaid=(5,1,0) tid=(13,6,0)
GPGPU-Sim PTX: 8900000 instructions simulated : ctaid=(15,1,0) tid=(11,1,0)
GPGPU-Sim uArch: cycles simulated: 25500  inst.: 8683556 (ipc=340.5) sim_rate=361814 (inst/sec) elapsed = 0:0:00:24 / Tue Apr 16 16:54:56 2019
GPGPU-Sim PTX: 9000000 instructions simulated : ctaid=(5,0,0) tid=(0,7,0)
GPGPU-Sim PTX: 9100000 instructions simulated : ctaid=(14,3,0) tid=(14,0,0)
GPGPU-Sim PTX: 9200000 instructions simulated : ctaid=(12,1,0) tid=(5,2,0)
GPGPU-Sim PTX: 9300000 instructions simulated : ctaid=(1,2,0) tid=(7,7,0)
GPGPU-Sim uArch: cycles simulated: 26000  inst.: 9084847 (ipc=349.4) sim_rate=363393 (inst/sec) elapsed = 0:0:00:25 / Tue Apr 16 16:54:57 2019
GPGPU-Sim PTX: 9400000 instructions simulated : ctaid=(6,0,0) tid=(9,5,0)
GPGPU-Sim PTX: 9500000 instructions simulated : ctaid=(10,4,0) tid=(10,4,0)
GPGPU-Sim PTX: 9600000 instructions simulated : ctaid=(0,4,0) tid=(10,0,0)
GPGPU-Sim PTX: 9700000 instructions simulated : ctaid=(6,0,0) tid=(8,0,0)
GPGPU-Sim uArch: cycles simulated: 26500  inst.: 9481321 (ipc=357.8) sim_rate=364666 (inst/sec) elapsed = 0:0:00:26 / Tue Apr 16 16:54:58 2019
GPGPU-Sim PTX: 9800000 instructions simulated : ctaid=(5,0,0) tid=(5,2,0)
GPGPU-Sim PTX: 9900000 instructions simulated : ctaid=(0,3,0) tid=(15,7,0)
GPGPU-Sim PTX: 10000000 instructions simulated : ctaid=(4,4,0) tid=(4,2,0)
GPGPU-Sim PTX: 10100000 instructions simulated : ctaid=(5,4,0) tid=(12,4,0)
GPGPU-Sim uArch: cycles simulated: 27500  inst.: 9873417 (ipc=359.0) sim_rate=365682 (inst/sec) elapsed = 0:0:00:27 / Tue Apr 16 16:54:59 2019
GPGPU-Sim PTX: 10200000 instructions simulated : ctaid=(12,2,0) tid=(10,1,0)
GPGPU-Sim PTX: 10300000 instructions simulated : ctaid=(8,4,0) tid=(7,2,0)
GPGPU-Sim uArch: cycles simulated: 28500  inst.: 10113151 (ipc=354.8) sim_rate=361183 (inst/sec) elapsed = 0:0:00:28 / Tue Apr 16 16:55:00 2019
GPGPU-Sim PTX: 10400000 instructions simulated : ctaid=(8,1,0) tid=(1,4,0)
GPGPU-Sim uArch: Shader 14 finished CTA #0 (28600,0), 4 CTAs running
GPGPU-Sim uArch: core: 14, cta: 0 initialized @(28601,0)
GPGPU-Sim uArch: Shader 6 finished CTA #2 (28830,0), 4 CTAs running
GPGPU-Sim uArch: core:  6, cta: 2 initialized @(28831,0)
GPGPU-Sim uArch: Shader 9 finished CTA #3 (28836,0), 4 CTAs running
GPGPU-Sim uArch: core:  9, cta: 3 initialized @(28837,0)
GPGPU-Sim uArch: Shader 9 finished CTA #4 (28857,0), 4 CTAs running
GPGPU-Sim uArch: core:  9, cta: 4 initialized @(28858,0)
GPGPU-Sim PTX: 10500000 instructions simulated : ctaid=(3,0,0) tid=(10,5,0)
GPGPU-Sim uArch: Shader 6 finished CTA #3 (28896,0), 4 CTAs running
GPGPU-Sim uArch: core:  6, cta: 3 initialized @(28897,0)
GPGPU-Sim uArch: Shader 10 finished CTA #4 (28991,0), 4 CTAs running
GPGPU-Sim uArch: core: 10, cta: 4 initialized @(28992,0)
GPGPU-Sim uArch: Shader 0 finished CTA #1 (29057,0), 4 CTAs running
GPGPU-Sim uArch: core:  0, cta: 1 initialized @(29058,0)
GPGPU-Sim uArch: Shader 8 finished CTA #2 (29084,0), 4 CTAs running
GPGPU-Sim uArch: core:  8, cta: 2 initialized @(29085,0)
GPGPU-Sim uArch: Shader 0 finished CTA #0 (29107,0), 4 CTAs running
GPGPU-Sim uArch: core:  0, cta: 0 initialized @(29108,0)
GPGPU-Sim uArch: Shader 5 finished CTA #2 (29140,0), 4 CTAs running
GPGPU-Sim uArch: core:  5, cta: 2 initialized @(29141,0)
GPGPU-Sim PTX: 10600000 instructions simulated : ctaid=(9,3,0) tid=(3,3,0)
GPGPU-Sim uArch: Shader 4 finished CTA #1 (29210,0), 4 CTAs running
GPGPU-Sim uArch: core:  4, cta: 1 initialized @(29211,0)
GPGPU-Sim uArch: Shader 8 finished CTA #3 (29217,0), 4 CTAs running
GPGPU-Sim uArch: core:  8, cta: 3 initialized @(29218,0)
GPGPU-Sim uArch: Shader 7 finished CTA #3 (29237,0), 4 CTAs running
GPGPU-Sim uArch: core:  7, cta: 3 initialized @(29238,0)
GPGPU-Sim uArch: Shader 7 finished CTA #4 (29258,0), 4 CTAs running
GPGPU-Sim uArch: core:  7, cta: 4 initialized @(29259,0)
GPGPU-Sim uArch: Shader 0 finished CTA #4 (29261,0), 4 CTAs running
GPGPU-Sim uArch: core:  0, cta: 4 initialized @(29262,0)
GPGPU-Sim uArch: Shader 0 finished CTA #2 (29283,0), 4 CTAs running
GPGPU-Sim uArch: core:  0, cta: 2 initialized @(29284,0)
GPGPU-Sim uArch: Shader 6 finished CTA #4 (29289,0), 4 CTAs running
GPGPU-Sim uArch: core:  6, cta: 4 initialized @(29290,0)
GPGPU-Sim uArch: Shader 0 finished CTA #3 (29307,0), 4 CTAs running
GPGPU-Sim uArch: core:  0, cta: 3 initialized @(29308,0)
GPGPU-Sim uArch: Shader 1 finished CTA #0 (29376,0), 4 CTAs running
GPGPU-Sim uArch: core:  1, cta: 0 initialized @(29377,0)
GPGPU-Sim uArch: Shader 2 finished CTA #1 (29448,0), 4 CTAs running
GPGPU-Sim uArch: core:  2, cta: 1 initialized @(29449,0)
GPGPU-Sim PTX: 10700000 instructions simulated : ctaid=(0,5,0) tid=(14,3,0)
GPGPU-Sim uArch: cycles simulated: 29500  inst.: 10426744 (ipc=353.4) sim_rate=359542 (inst/sec) elapsed = 0:0:00:29 / Tue Apr 16 16:55:01 2019
GPGPU-Sim uArch: Shader 3 finished CTA #1 (29500,0), 4 CTAs running
GPGPU-Sim uArch: core:  3, cta: 1 initialized @(29501,0)
GPGPU-Sim uArch: Shader 8 finished CTA #4 (29513,0), 4 CTAs running
GPGPU-Sim uArch: core:  8, cta: 4 initialized @(29514,0)
GPGPU-Sim uArch: Shader 2 finished CTA #0 (29517,0), 4 CTAs running
GPGPU-Sim uArch: core:  2, cta: 0 initialized @(29518,0)
GPGPU-Sim uArch: Shader 2 finished CTA #2 (29528,0), 4 CTAs running
GPGPU-Sim uArch: core:  2, cta: 2 initialized @(29529,0)
GPGPU-Sim uArch: Shader 3 finished CTA #0 (29532,0), 4 CTAs running
GPGPU-Sim uArch: core:  3, cta: 0 initialized @(29533,0)
GPGPU-Sim uArch: Shader 3 finished CTA #2 (29558,0), 4 CTAs running
GPGPU-Sim uArch: core:  3, cta: 2 initialized @(29559,0)
GPGPU-Sim uArch: Shader 4 finished CTA #2 (29560,0), 4 CTAs running
GPGPU-Sim uArch: core:  4, cta: 2 initialized @(29561,0)
GPGPU-Sim uArch: Shader 4 finished CTA #3 (29570,0), 4 CTAs running
GPGPU-Sim uArch: core:  4, cta: 3 initialized @(29571,0)
GPGPU-Sim uArch: Shader 5 finished CTA #3 (29598,0), 4 CTAs running
GPGPU-Sim uArch: core:  5, cta: 3 initialized @(29599,0)
GPGPU-Sim uArch: Shader 3 finished CTA #3 (29628,0), 4 CTAs running
GPGPU-Sim uArch: core:  3, cta: 3 initialized @(29629,0)
GPGPU-Sim uArch: Shader 1 finished CTA #2 (29650,0), 4 CTAs running
GPGPU-Sim uArch: core:  1, cta: 2 initialized @(29651,0)
GPGPU-Sim uArch: Shader 5 finished CTA #4 (29651,0), 4 CTAs running
GPGPU-Sim uArch: core:  5, cta: 4 initialized @(29652,0)
GPGPU-Sim uArch: Shader 1 finished CTA #1 (29657,0), 4 CTAs running
GPGPU-Sim uArch: core:  1, cta: 1 initialized @(29658,0)
GPGPU-Sim uArch: Shader 2 finished CTA #4 (29683,0), 4 CTAs running
GPGPU-Sim uArch: core:  2, cta: 4 initialized @(29684,0)
GPGPU-Sim uArch: Shader 2 finished CTA #3 (29717,0), 4 CTAs running
GPGPU-Sim uArch: core:  2, cta: 3 initialized @(29718,0)
GPGPU-Sim uArch: Shader 3 finished CTA #4 (29731,0), 4 CTAs running
GPGPU-Sim uArch: core:  3, cta: 4 initialized @(29732,0)
GPGPU-Sim PTX: 10800000 instructions simulated : ctaid=(12,0,0) tid=(1,4,0)
GPGPU-Sim uArch: Shader 4 finished CTA #4 (29934,0), 4 CTAs running
GPGPU-Sim uArch: core:  4, cta: 4 initialized @(29935,0)
GPGPU-Sim uArch: Shader 1 finished CTA #3 (29996,0), 4 CTAs running
GPGPU-Sim uArch: core:  1, cta: 3 initialized @(29997,0)
GPGPU-Sim uArch: cycles simulated: 30000  inst.: 10593686 (ipc=353.1) sim_rate=353122 (inst/sec) elapsed = 0:0:00:30 / Tue Apr 16 16:55:02 2019
GPGPU-Sim PTX: 10900000 instructions simulated : ctaid=(8,0,0) tid=(13,3,0)
GPGPU-Sim PTX: 11000000 instructions simulated : ctaid=(8,1,0) tid=(14,1,0)
GPGPU-Sim PTX: 11100000 instructions simulated : ctaid=(6,3,0) tid=(12,2,0)
GPGPU-Sim uArch: Shader 1 finished CTA #4 (30639,0), 4 CTAs running
GPGPU-Sim uArch: core:  1, cta: 4 initialized @(30640,0)
GPGPU-Sim PTX: 11200000 instructions simulated : ctaid=(4,0,0) tid=(3,1,0)
GPGPU-Sim uArch: cycles simulated: 31000  inst.: 10976913 (ipc=354.1) sim_rate=354093 (inst/sec) elapsed = 0:0:00:31 / Tue Apr 16 16:55:03 2019
GPGPU-Sim PTX: 11300000 instructions simulated : ctaid=(8,5,0) tid=(7,7,0)
GPGPU-Sim PTX: 11400000 instructions simulated : ctaid=(11,4,0) tid=(11,6,0)
GPGPU-Sim PTX: 11500000 instructions simulated : ctaid=(0,7,0) tid=(9,0,0)
GPGPU-Sim uArch: cycles simulated: 31500  inst.: 11219220 (ipc=356.2) sim_rate=350600 (inst/sec) elapsed = 0:0:00:32 / Tue Apr 16 16:55:04 2019
GPGPU-Sim PTX: 11600000 instructions simulated : ctaid=(13,6,0) tid=(15,2,0)
GPGPU-Sim PTX: 11700000 instructions simulated : ctaid=(15,6,0) tid=(1,5,0)
GPGPU-Sim PTX: 11800000 instructions simulated : ctaid=(5,0,0) tid=(0,7,0)
GPGPU-Sim PTX: 11900000 instructions simulated : ctaid=(8,6,0) tid=(10,4,0)
GPGPU-Sim PTX: 12000000 instructions simulated : ctaid=(14,5,0) tid=(10,1,0)
GPGPU-Sim uArch: cycles simulated: 32500  inst.: 11706681 (ipc=360.2) sim_rate=354747 (inst/sec) elapsed = 0:0:00:33 / Tue Apr 16 16:55:05 2019
GPGPU-Sim PTX: 12100000 instructions simulated : ctaid=(9,5,0) tid=(15,3,0)
GPGPU-Sim uArch: Shader 7 finished CTA #2 (32635,0), 4 CTAs running
GPGPU-Sim uArch: core:  7, cta: 2 initialized @(32636,0)
GPGPU-Sim PTX: 12200000 instructions simulated : ctaid=(14,5,0) tid=(5,4,0)
GPGPU-Sim uArch: Shader 14 finished CTA #2 (32947,0), 4 CTAs running
GPGPU-Sim uArch: core: 14, cta: 2 initialized @(32948,0)
GPGPU-Sim PTX: 12300000 instructions simulated : ctaid=(6,3,0) tid=(9,3,0)
GPGPU-Sim uArch: cycles simulated: 33000  inst.: 11987281 (ipc=363.3) sim_rate=352567 (inst/sec) elapsed = 0:0:00:34 / Tue Apr 16 16:55:06 2019
GPGPU-Sim PTX: 12400000 instructions simulated : ctaid=(6,3,0) tid=(9,6,0)
GPGPU-Sim PTX: 12500000 instructions simulated : ctaid=(2,7,0) tid=(8,2,0)
GPGPU-Sim PTX: 12600000 instructions simulated : ctaid=(8,5,0) tid=(11,6,0)
GPGPU-Sim uArch: cycles simulated: 33500  inst.: 12277235 (ipc=366.5) sim_rate=350778 (inst/sec) elapsed = 0:0:00:35 / Tue Apr 16 16:55:07 2019
GPGPU-Sim PTX: 12700000 instructions simulated : ctaid=(7,5,0) tid=(11,5,0)
GPGPU-Sim PTX: 12800000 instructions simulated : ctaid=(0,7,0) tid=(10,4,0)
GPGPU-Sim PTX: 12900000 instructions simulated : ctaid=(6,5,0) tid=(0,3,0)
GPGPU-Sim PTX: 13000000 instructions simulated : ctaid=(9,6,0) tid=(2,5,0)
GPGPU-Sim PTX: 13100000 instructions simulated : ctaid=(14,4,0) tid=(0,1,0)
GPGPU-Sim uArch: cycles simulated: 34500  inst.: 12834281 (ipc=372.0) sim_rate=356507 (inst/sec) elapsed = 0:0:00:36 / Tue Apr 16 16:55:08 2019
GPGPU-Sim PTX: 13200000 instructions simulated : ctaid=(10,5,0) tid=(10,3,0)
GPGPU-Sim PTX: 13300000 instructions simulated : ctaid=(15,5,0) tid=(11,4,0)
GPGPU-Sim PTX: 13400000 instructions simulated : ctaid=(14,4,0) tid=(2,3,0)
GPGPU-Sim uArch: cycles simulated: 35000  inst.: 13093040 (ipc=374.1) sim_rate=353865 (inst/sec) elapsed = 0:0:00:37 / Tue Apr 16 16:55:09 2019
GPGPU-Sim PTX: 13500000 instructions simulated : ctaid=(13,4,0) tid=(7,6,0)
GPGPU-Sim PTX: 13600000 instructions simulated : ctaid=(12,6,0) tid=(2,1,0)
GPGPU-Sim PTX: 13700000 instructions simulated : ctaid=(9,2,0) tid=(2,6,0)
GPGPU-Sim PTX: 13800000 instructions simulated : ctaid=(3,5,0) tid=(15,5,0)
GPGPU-Sim PTX: 13900000 instructions simulated : ctaid=(11,6,0) tid=(12,0,0)
GPGPU-Sim uArch: cycles simulated: 36000  inst.: 13603328 (ipc=377.9) sim_rate=357982 (inst/sec) elapsed = 0:0:00:38 / Tue Apr 16 16:55:10 2019
GPGPU-Sim PTX: 14000000 instructions simulated : ctaid=(7,4,0) tid=(6,6,0)
GPGPU-Sim PTX: 14100000 instructions simulated : ctaid=(8,1,0) tid=(3,7,0)
GPGPU-Sim PTX: 14200000 instructions simulated : ctaid=(0,5,0) tid=(8,5,0)
GPGPU-Sim PTX: 14300000 instructions simulated : ctaid=(11,5,0) tid=(10,1,0)
GPGPU-Sim PTX: 14400000 instructions simulated : ctaid=(10,5,0) tid=(1,7,0)
GPGPU-Sim PTX: 14500000 instructions simulated : ctaid=(8,2,0) tid=(3,4,0)
GPGPU-Sim uArch: cycles simulated: 37000  inst.: 14143179 (ipc=382.2) sim_rate=362645 (inst/sec) elapsed = 0:0:00:39 / Tue Apr 16 16:55:11 2019
GPGPU-Sim PTX: 14600000 instructions simulated : ctaid=(14,4,0) tid=(0,0,0)
GPGPU-Sim PTX: 14700000 instructions simulated : ctaid=(9,6,0) tid=(8,3,0)
GPGPU-Sim PTX: 14800000 instructions simulated : ctaid=(3,6,0) tid=(4,3,0)
GPGPU-Sim uArch: cycles simulated: 37500  inst.: 14442410 (ipc=385.1) sim_rate=361060 (inst/sec) elapsed = 0:0:00:40 / Tue Apr 16 16:55:12 2019
GPGPU-Sim PTX: 14900000 instructions simulated : ctaid=(15,4,0) tid=(0,0,0)
GPGPU-Sim PTX: 15000000 instructions simulated : ctaid=(11,1,0) tid=(11,0,0)
GPGPU-Sim PTX: 15100000 instructions simulated : ctaid=(9,2,0) tid=(1,5,0)
GPGPU-Sim uArch: cycles simulated: 38000  inst.: 14726102 (ipc=387.5) sim_rate=359173 (inst/sec) elapsed = 0:0:00:41 / Tue Apr 16 16:55:13 2019
GPGPU-Sim PTX: 15200000 instructions simulated : ctaid=(1,7,0) tid=(12,7,0)
GPGPU-Sim PTX: 15300000 instructions simulated : ctaid=(6,6,0) tid=(11,7,0)
GPGPU-Sim PTX: 15400000 instructions simulated : ctaid=(9,0,0) tid=(5,1,0)
GPGPU-Sim PTX: 15500000 instructions simulated : ctaid=(15,4,0) tid=(1,2,0)
GPGPU-Sim PTX: 15600000 instructions simulated : ctaid=(14,6,0) tid=(5,5,0)
GPGPU-Sim uArch: cycles simulated: 39000  inst.: 15237825 (ipc=390.7) sim_rate=362805 (inst/sec) elapsed = 0:0:00:42 / Tue Apr 16 16:55:14 2019
GPGPU-Sim PTX: 15700000 instructions simulated : ctaid=(11,5,0) tid=(6,1,0)
GPGPU-Sim PTX: 15800000 instructions simulated : ctaid=(8,3,0) tid=(0,1,0)
GPGPU-Sim PTX: 15900000 instructions simulated : ctaid=(12,0,0) tid=(3,4,0)
GPGPU-Sim PTX: 16000000 instructions simulated : ctaid=(13,6,0) tid=(8,4,0)
GPGPU-Sim PTX: 16100000 instructions simulated : ctaid=(2,6,0) tid=(14,1,0)
GPGPU-Sim uArch: cycles simulated: 40000  inst.: 15680436 (ipc=392.0) sim_rate=364661 (inst/sec) elapsed = 0:0:00:43 / Tue Apr 16 16:55:15 2019
GPGPU-Sim PTX: 16200000 instructions simulated : ctaid=(12,5,0) tid=(3,7,0)
GPGPU-Sim uArch: Shader 14 finished CTA #3 (40272,0), 4 CTAs running
GPGPU-Sim uArch: core: 14, cta: 3 initialized @(40273,0)
GPGPU-Sim PTX: 16300000 instructions simulated : ctaid=(8,3,0) tid=(6,2,0)
GPGPU-Sim uArch: Shader 13 finished CTA #2 (40480,0), 4 CTAs running
GPGPU-Sim uArch: core: 13, cta: 2 initialized @(40481,0)
GPGPU-Sim uArch: cycles simulated: 40500  inst.: 15903953 (ipc=392.7) sim_rate=361453 (inst/sec) elapsed = 0:0:00:44 / Tue Apr 16 16:55:16 2019
GPGPU-Sim PTX: 16400000 instructions simulated : ctaid=(10,1,0) tid=(15,4,0)
GPGPU-Sim PTX: 16500000 instructions simulated : ctaid=(9,4,0) tid=(2,0,0)
GPGPU-Sim PTX: 16600000 instructions simulated : ctaid=(10,6,0) tid=(12,0,0)
GPGPU-Sim PTX: 16700000 instructions simulated : ctaid=(9,2,0) tid=(0,7,0)
GPGPU-Sim uArch: cycles simulated: 41500  inst.: 16352349 (ipc=394.0) sim_rate=363385 (inst/sec) elapsed = 0:0:00:45 / Tue Apr 16 16:55:17 2019
GPGPU-Sim PTX: 16800000 instructions simulated : ctaid=(4,7,0) tid=(13,7,0)
GPGPU-Sim PTX: 16900000 instructions simulated : ctaid=(2,6,0) tid=(13,3,0)
GPGPU-Sim PTX: 17000000 instructions simulated : ctaid=(12,0,0) tid=(4,6,0)
GPGPU-Sim uArch: cycles simulated: 42000  inst.: 16571319 (ipc=394.6) sim_rate=360246 (inst/sec) elapsed = 0:0:00:46 / Tue Apr 16 16:55:18 2019
GPGPU-Sim PTX: 17100000 instructions simulated : ctaid=(4,1,0) tid=(10,5,0)
GPGPU-Sim PTX: 17200000 instructions simulated : ctaid=(11,1,0) tid=(9,1,0)
GPGPU-Sim uArch: Shader 5 finished CTA #1 (42572,0), 4 CTAs running
GPGPU-Sim uArch: core:  5, cta: 1 initialized @(42573,0)
GPGPU-Sim PTX: 17300000 instructions simulated : ctaid=(3,7,0) tid=(9,3,0)
GPGPU-Sim PTX: 17400000 instructions simulated : ctaid=(3,0,0) tid=(11,2,0)
GPGPU-Sim uArch: Shader 10 finished CTA #3 (42925,0), 4 CTAs running
GPGPU-Sim uArch: core: 10, cta: 3 initialized @(42926,0)
GPGPU-Sim uArch: cycles simulated: 43000  inst.: 16973903 (ipc=394.7) sim_rate=361146 (inst/sec) elapsed = 0:0:00:47 / Tue Apr 16 16:55:19 2019
GPGPU-Sim PTX: 17500000 instructions simulated : ctaid=(4,5,0) tid=(11,4,0)
GPGPU-Sim PTX: 17600000 instructions simulated : ctaid=(14,4,0) tid=(2,5,0)
GPGPU-Sim uArch: cycles simulated: 43500  inst.: 17177728 (ipc=394.9) sim_rate=357869 (inst/sec) elapsed = 0:0:00:48 / Tue Apr 16 16:55:20 2019
GPGPU-Sim PTX: 17700000 instructions simulated : ctaid=(0,5,0) tid=(15,2,0)
GPGPU-Sim PTX: 17800000 instructions simulated : ctaid=(7,2,0) tid=(2,3,0)
GPGPU-Sim PTX: 17900000 instructions simulated : ctaid=(6,2,0) tid=(13,7,0)
GPGPU-Sim PTX: 18000000 instructions simulated : ctaid=(13,5,0) tid=(4,0,0)
GPGPU-Sim PTX: 18100000 instructions simulated : ctaid=(1,6,0) tid=(14,6,0)
GPGPU-Sim uArch: cycles simulated: 44500  inst.: 17659598 (ipc=396.8) sim_rate=360399 (inst/sec) elapsed = 0:0:00:49 / Tue Apr 16 16:55:21 2019
GPGPU-Sim PTX: 18200000 instructions simulated : ctaid=(1,5,0) tid=(10,3,0)
GPGPU-Sim PTX: 18300000 instructions simulated : ctaid=(9,5,0) tid=(5,3,0)
GPGPU-Sim uArch: Shader 12 finished CTA #3 (44924,0), 4 CTAs running
GPGPU-Sim uArch: core: 12, cta: 3 initialized @(44925,0)
GPGPU-Sim uArch: Shader 4 finished CTA #0 (44983,0), 4 CTAs running
GPGPU-Sim uArch: core:  4, cta: 0 initialized @(44984,0)
GPGPU-Sim uArch: cycles simulated: 45000  inst.: 17891622 (ipc=397.6) sim_rate=357832 (inst/sec) elapsed = 0:0:00:50 / Tue Apr 16 16:55:22 2019
GPGPU-Sim PTX: 18400000 instructions simulated : ctaid=(12,5,0) tid=(8,6,0)
GPGPU-Sim PTX: 18500000 instructions simulated : ctaid=(12,5,0) tid=(0,5,0)
GPGPU-Sim uArch: Shader 11 finished CTA #4 (45532,0), 4 CTAs running
GPGPU-Sim uArch: core: 11, cta: 4 initialized @(45533,0)
GPGPU-Sim PTX: 18600000 instructions simulated : ctaid=(6,6,0) tid=(14,5,0)
GPGPU-Sim PTX: 18700000 instructions simulated : ctaid=(6,7,0) tid=(11,7,0)
GPGPU-Sim uArch: cycles simulated: 46000  inst.: 18223308 (ipc=396.2) sim_rate=357319 (inst/sec) elapsed = 0:0:00:51 / Tue Apr 16 16:55:23 2019
GPGPU-Sim uArch: Shader 14 finished CTA #0 (46034,0), 4 CTAs running
[...]
traffic_breakdown_memtocore[LOCAL_ACC_W] = 432056 {8:54007,}
maxmrqlatency = 628 
maxdqlatency = 0 
maxmflatency = 1999 
averagemflatency = 246 
max_icnt2mem_latency = 1092 
max_icnt2sh_latency = 155504 
mrq_lat_table:17170 	2085 	1499 	2461 	6319 	4292 	3501 	2080 	273 	10 	0 	0 	0 	0 	0 	0 	0 	0 	0 	0 	0 	0 	0 	0 	0 	0 	0 	0 	0 	0 	0 	0 	
dq_lat_table:0 	0 	0 	0 	0 	0 	0 	0 	0 	0 	0 	0 	0 	0 	0 	0 	0 	0 	0 	0 	0 	0 	0 	0 	0 	0 	0 	0 	0 	0 	0 	0 	
mf_lat_table:0 	0 	0 	0 	0 	0 	0 	62032 	11382 	4741 	851 	0 	0 	0 	0 	0 	0 	0 	0 	0 	0 	0 	0 	0 	0 	0 	0 	0 	0 	0 	0 	0 	
icnt2mem_lat_table:0 	0 	0 	26041 	19913 	17605 	31148 	2054 	2256 	509 	4 	0 	0 	0 	0 	0 	0 	0 	0 	0 	0 	0 	0 	0 	
icnt2sh_lat_table:0 	0 	0 	9729 	6034 	1009 	35 	0 	0 	186 	498 	1378 	3108 	2630 	6167 	10425 	25318 	12489 	0 	0 	0 	0 	0 	0 	
mf_lat_pw_table:0 	0 	0 	0 	0 	0 	0 	263 	6 	17 	2 	0 	0 	0 	0 	0 	0 	0 	0 	0 	0 	0 	0 	0 	0 	0 	0 	0 	0 	0 	0 	0 	
maximum concurrent accesses to same row:
dram[0]:        54        56        36        34        26        22        24        20        26        18        14        12        15        16        22        18 
dram[1]:        52        54        34        32        20        22        35        39        22        16        25        18        14        14        16        20 
dram[2]:        62        62        54        56        30        30        24        26        28        26        20        20        17        18        30        22 
dram[3]:        58        60        54        56        28        30        31        23        28        22        18        18        12        17        19        23 
dram[4]:        62        64        56        52        30        32        36        23        25        22        18        19        22        16        25        20 
dram[5]:        58        60        56        48        28        35        23        39        22        25        16        16        15        19        18        22 
maximum service time to same row:
dram[0]:     19319     14773     16976     17351     13855     16611     20667     17098     18198     18315     21494     20276     22853     35156     20140     20228 
dram[1]:     12984     12171     17914     18450     20408     18353     14290     17903     17954     18606     21663     36556     36949     35570     19853     19939 
dram[2]:     23773     12372     17200     26986     16787     19493     18106     24559     18560     20602     20675     25512     31480     30437     23782     39866 
dram[3]:     13262     15847     27415     18872     16672     17472     17917     16851     20944     20708     41138     20016     36395     30494     20656     19932 
dram[4]:     10944     15691     25121     28909     17101     17525     40388     17798     18658     19434     20761     20726     24152     22472     38861     19912 
dram[5]:     13522     15351     17293     30118     17097     18242     17148     20368     18212     18376     19190     21656     23902     31419     20278     35518 
average row accesses per activate:
dram[0]:  4.837500  3.884615  4.420290  4.500000  3.702703  3.131034  3.796296  3.435115  3.321212  2.900990  3.267241  2.993421  3.098160  3.315151  3.898876  3.544643 
dram[1]:  4.500000  4.647059  5.048387  4.367647  3.483333  3.366667  3.538461  3.936842  3.242774  3.267857  3.006536  3.254237  3.378882  3.444444  4.093750  3.795699 
dram[2]:  4.422222  5.406780  4.870968  5.258621  3.360656  3.452991  3.944444  4.010870  3.322368  3.357616  3.117241  3.650486  3.165680  3.326389  4.733333  4.412500 
dram[3]:  4.166667  5.075758  6.085106  4.708333  3.581633  3.348485  4.000000  3.363636  3.671875  2.939891  3.232759  3.436975  3.344594  3.437500  4.357143  3.548673 
dram[4]:  6.781818  4.822222  6.581395  5.225806  3.759615  3.400000  5.013514  3.447155  3.509934  3.146199  3.186441  3.052632  3.206061  3.333333  3.555556  3.645833 
dram[5]:  4.786667  4.702381  4.953125  5.442307  3.388889  3.470588  3.267606  4.223529  3.122807  3.270968  3.157895  3.303571  3.534247  3.666667  3.462963  4.417911 
average row locality = 39690/10846 = 3.659414
number of total memory accesses made:
dram[0]:         0         0         0         0         0         0         0         0         0         0         0         0         0         0         0         0 
dram[1]:         0         0         0         0         0         0         0         0         0         0         0         0         0         0         0         0 
dram[2]:         0         0         0         0         0         0         0         0         0         0         0         0         0         0         0         0 
dram[3]:         0         0         0         0         0         0         0         0         0         0         0         0         0         0         0         0 
dram[4]:         0         0         0         0         0         0         0         0         0         0         0         0         0         0         0         0 
dram[5]:         0         0         0         0         0         0         0         0         0         0         0         0         0         0         0         0 
total accesses: 0
min_bank_accesses = 0!
min_chip_accesses = 0!
number of total read accesses:
dram[0]:       173       178       130       143       168       190       163       184       216       231       156       188       205       226       151       168 
dram[1]:       174       172       132       128       174       165       183       150       224       217       191       151       218       216       170       152 
dram[2]:       177       145       131       134       173       168       170       150       204       205       185       150       215       196       152       151 
dram[3]:       163       150       124       143       146       184       158       163       192       214       150       168       202       201       131       168 
dram[4]:       167       189       125       139       164       177       150       173       209       213       152       166       212       207       142       150 
dram[5]:       160       171       137       124       178       147       186       148       209       205       173       149       210       200       159       132 
total reads: 16473
bank skew: 231/124 = 1.86
chip skew: 2870/2657 = 1.08
number of total write accesses:
dram[0]:       214       226       175       190       243       264       247       266       332       355       223       267       300       321       196       229 
dram[1]:       213       223       181       169       244       239       277       224       337       332       269       233       326       311       223       201 
dram[2]:       221       174       171       171       237       236       256       219       301       302       267       226       320       283       203       202 
dram[3]:       212       185       162       196       205       258       234       244       278       324       225       241       293       294       174       233 
dram[4]:       206       245       158       185       227       248       221       251       321       325       224       240       317       303       178       200 
dram[5]:       199       224       180       159       249       207       278       211       325       302       247       221       306       284       215       164 
total reads: 23217
bank skew: 355/158 = 2.25
chip skew: 4048/3758 = 1.08
average mf latency per bank:
dram[0]:        641       543       657       583       535       502       556       498       394       373       548       454       409       377       492       431
dram[1]:        802       502       612       634       522       517       488       537       373       378       432       491       351       351       412       437
dram[2]:        566       710       697       667       562       509       527       588       407       405       446       516       368       403       483       459
dram[3]:        551       661       687       596       595       470       525       526       430       374       498       481       374       370       524       406
dram[4]:        615       471       742       647       569       546       622       534       404       400       545       504       374       394       518       474
dram[5]:        628       487       641       680       485       596       466       575       378       391       462       508       367       382       434       532
maximum mf latency per bank:
dram[0]:       1295      1076      1674      1172      1999      1319      1373      1228      1356      1063      1289      1102      1497      1213      1244      1127
dram[1]:        985      1005      1318      1232      1284      1323      1277      1039      1064      1028      1095      1028       988       904       947       966
dram[2]:       1315      1333      1762      1750      1536      1530      1661      1442      1351      1508      1234      1318      1445      1273      1189      1332
dram[3]:       1138      1370      1535      1699      1341      1483      1218      1450      1156      1089      1000      1198      1148      1183      1053      1123
dram[4]:       1393      1514      1843      1844      1677      1619      1533      1589      1552      1374      1286      1359      1410      1402      1490      1311
dram[5]:       1365      1329      1802      1570      1635      1549      1784      1704      1337      1271      1235      1223      1320      1238      1312      1264

Number of Memory Banks Accessed per Memory Operation per Warp (from 0):
0	0	0	0	0	0	0	0	0	0	0	0	0	0	0	0	0	0	0	0	0	0	0	0	0	0	0	0	0	0	0	0	0	0	0	0	0	0	0	0	0	0	0	0	0	0	0	0	0	0	0	0	0	0	0	0	0	0	0	0	0	0	0	0	0	0	0	0	0	0	0	0	0	0	0	0	0	0	0	0	0	0	0	0	0	0	0	0	0	0	0	0	0	0	0	0	
Average # of Memory Banks Accessed per Memory Operation per Warp=-nan

position of mrq chosen
0	0	0	0	0	0	0	0	0	0	0	0	0	0	0	0	

average position of mrq chosen = -nan
Memory Partition 0: 
Cache L2_bank_000:
MSHR contents

Cache L2_bank_001:
MSHR contents

In Dram Latency Queue (total = 0): 
DRAM[0]: 16 bks, busW=4 BL=8 CL=12, tRRD=2 tCCD=6, tRCD=12 tRAS=28 tRP=12 tRC=40
n_cmd=205266 n_nop=187917 n_act=1986 n_pre=1970 n_req=6918 n_rd=5740 n_write=7653 bw_util=0.1305
n_activity=68871 dram_eff=0.3889
bk0: 346a 194937i bk1: 356a 194711i bk2: 260a 195302i bk3: 286a 195363i bk4: 336a 191957i bk5: 380a 191215i bk6: 326a 191280i bk7: 368a 190576i bk8: 432a 190166i bk9: 462a 188122i bk10: 312a 192415i bk11: 376a 191381i bk12: 410a 189635i bk13: 452a 188729i bk14: 302a 193492i bk15: 336a 193023i 
dram_util_bins: 0 0 0 0 0 0 0 0 0 0
dram_eff_bins: 0 0 0 0 0 0 0 0 0 0
mrqq: max=16 avg=1.28087
Memory Partition 1: 
Cache L2_bank_002:
MSHR contents

Cache L2_bank_003:
MSHR contents

In Dram Latency Queue (total = 0): 
DRAM[1]: 16 bks, busW=4 BL=8 CL=12, tRRD=2 tCCD=6, tRCD=12 tRAS=28 tRP=12 tRC=40
n_cmd=205266 n_nop=188326 n_act=1881 n_pre=1865 n_req=6819 n_rd=5634 n_write=7560 bw_util=0.1286
n_activity=67085 dram_eff=0.3934
bk0: 348a 194339i bk1: 344a 195075i bk2: 264a 195918i bk3: 256a 196342i bk4: 348a 191382i bk5: 330a 191638i bk6: 366a 190341i bk7: 300a 192861i bk8: 448a 189449i bk9: 434a 188674i bk10: 382a 191029i bk11: 302a 193060i bk12: 436a 188798i bk13: 432a 189810i bk14: 340a 192957i bk15: 304a 193944i 
dram_util_bins: 0 0 0 0 0 0 0 0 0 0
dram_eff_bins: 0 0 0 0 0 0 0 0 0 0
mrqq: max=16 avg=1.21082
Memory Partition 2: 
Cache L2_bank_004:
MSHR contents

Cache L2_bank_005:
MSHR contents

In Dram Latency Queue (total = 0): 
DRAM[2]: 16 bks, busW=4 BL=8 CL=12, tRRD=2 tCCD=6, tRCD=12 tRAS=28 tRP=12 tRC=40
n_cmd=205266 n_nop=189295 n_act=1727 n_pre=1711 n_req=6495 n_rd=5412 n_write=7121 bw_util=0.1221
n_activity=65917 dram_eff=0.3803
bk0: 354a 194743i bk1: 290a 196879i bk2: 262a 196763i bk3: 268a 196293i bk4: 346a 192797i bk5: 336a 192672i bk6: 340a 191397i bk7: 300a 192956i bk8: 408a 191216i bk9: 410a 190611i bk10: 370a 191198i bk11: 300a 193626i bk12: 430a 188947i bk13: 392a 190175i bk14: 304a 194241i bk15: 302a 193826i 
dram_util_bins: 0 0 0 0 0 0 0 0 0 0
dram_eff_bins: 0 0 0 0 0 0 0 0 0 0
mrqq: max=16 avg=1.21881
Memory Partition 3: 
Cache L2_bank_006:
MSHR contents

Cache L2_bank_007:
MSHR contents

In Dram Latency Queue (total = 0): 
DRAM[3]: 16 bks, busW=4 BL=8 CL=12, tRRD=2 tCCD=6, tRCD=12 tRAS=28 tRP=12 tRC=40
n_cmd=205266 n_nop=189408 n_act=1745 n_pre=1729 n_req=6415 n_rd=5314 n_write=7070 bw_util=0.1207
n_activity=66353 dram_eff=0.3733
bk0: 326a 195925i bk1: 300a 196353i bk2: 248a 196868i bk3: 286a 195747i bk4: 292a 194519i bk5: 368a 192613i bk6: 316a 193529i bk7: 326a 192323i bk8: 384a 192497i bk9: 428a 190083i bk10: 300a 193170i bk11: 336a 191963i bk12: 404a 190633i bk13: 402a 190861i bk14: 262a 194900i bk15: 336a 192637i 
dram_util_bins: 0 0 0 0 0 0 0 0 0 0
dram_eff_bins: 0 0 0 0 0 0 0 0 0 0
mrqq: max=16 avg=1.18038
Memory Partition 4: 
Cache L2_bank_008:
MSHR contents

Cache L2_bank_009:
MSHR contents

In Dram Latency Queue (total = 0): 
DRAM[4]: 16 bks, busW=4 BL=8 CL=12, tRRD=2 tCCD=6, tRCD=12 tRAS=28 tRP=12 tRC=40
n_cmd=205266 n_nop=189061 n_act=1753 n_pre=1737 n_req=6584 n_rd=5470 n_write=7245 bw_util=0.1239
n_activity=67740 dram_eff=0.3754
bk0: 334a 196357i bk1: 378a 195139i bk2: 250a 196847i bk3: 278a 196056i bk4: 328a 193217i bk5: 354a 192499i bk6: 300a 193021i bk7: 346a 191934i bk8: 418a 190951i bk9: 426a 189949i bk10: 304a 193096i bk11: 332a 192299i bk12: 424a 189951i bk13: 414a 189767i bk14: 284a 194766i bk15: 300a 194762i 
dram_util_bins: 0 0 0 0 0 0 0 0 0 0
dram_eff_bins: 0 0 0 0 0 0 0 0 0 0
mrqq: max=16 avg=1.2082
Memory Partition 5: 
Cache L2_bank_010:
MSHR contents

Cache L2_bank_011:
MSHR contents

In Dram Latency Queue (total = 0): 
DRAM[5]: 16 bks, busW=4 BL=8 CL=12, tRRD=2 tCCD=6, tRCD=12 tRAS=28 tRP=12 tRC=40
n_cmd=205266 n_nop=189298 n_act=1754 n_pre=1738 n_req=6459 n_rd=5376 n_write=7100 bw_util=0.1216
n_activity=66844 dram_eff=0.3733
bk0: 320a 195578i bk1: 342a 195513i bk2: 274a 196070i bk3: 248a 197217i bk4: 356a 192337i bk5: 294a 194276i bk6: 372a 191087i bk7: 296a 194080i bk8: 418a 191037i bk9: 410a 191010i bk10: 346a 192437i bk11: 298a 193696i bk12: 420a 190027i bk13: 400a 190707i bk14: 318a 193910i bk15: 264a 195755i 
dram_util_bins: 0 0 0 0 0 0 0 0 0 0
dram_eff_bins: 0 0 0 0 0 0 0 0 0 0
mrqq: max=16 avg=1.12749

========= L2 cache stats =========
L2_cache_bank[0]: Access = 8221, Miss = 1362, Miss_rate = 0.166, Pending_hits = 59, Reservation_fails = 910
L2_cache_bank[1]: Access = 8504, Miss = 1508, Miss_rate = 0.177, Pending_hits = 56, Reservation_fails = 600
L2_cache_bank[2]: Access = 8558, Miss = 1466, Miss_rate = 0.171, Pending_hits = 63, Reservation_fails = 853
L2_cache_bank[3]: Access = 8147, Miss = 1351, Miss_rate = 0.166, Pending_hits = 56, Reservation_fails = 415
L2_cache_bank[4]: Access = 8165, Miss = 1407, Miss_rate = 0.172, Pending_hits = 61, Reservation_fails = 850
L2_cache_bank[5]: Access = 8312, Miss = 1299, Miss_rate = 0.156, Pending_hits = 57, Reservation_fails = 380
L2_cache_bank[6]: Access = 8210, Miss = 1266, Miss_rate = 0.154, Pending_hits = 46, Reservation_fails = 379
L2_cache_bank[7]: Access = 8344, Miss = 1391, Miss_rate = 0.167, Pending_hits = 59, Reservation_fails = 414
L2_cache_bank[8]: Access = 8460, Miss = 1321, Miss_rate = 0.156, Pending_hits = 52, Reservation_fails = 644
L2_cache_bank[9]: Access = 8061, Miss = 1414, Miss_rate = 0.175, Pending_hits = 54, Reservation_fails = 310
L2_cache_bank[10]: Access = 8425, Miss = 1412, Miss_rate = 0.168, Pending_hits = 59, Reservation_fails = 629
L2_cache_bank[11]: Access = 8123, Miss = 1276, Miss_rate = 0.157, Pending_hits = 43, Reservation_fails = 338
L2_total_cache_accesses = 99530
L2_total_cache_misses = 16473
L2_total_cache_miss_rate = 0.1655
L2_total_cache_pending_hits = 665
L2_total_cache_reservation_fails = 6722
L2_total_cache_breakdown:
	L2_cache_stats_breakdown[GLOBAL_ACC_R][HIT] = 4098
	L2_cache_stats_breakdown[GLOBAL_ACC_R][HIT_RESERVED] = 12
	L2_cache_stats_breakdown[GLOBAL_ACC_R][MISS] = 254
	L2_cache_stats_breakdown[GLOBAL_ACC_R][RESERVATION_FAIL] = 366
	L2_cache_stats_breakdown[LOCAL_ACC_R][HIT] = 11595
	L2_cache_stats_breakdown[LOCAL_ACC_R][HIT_RESERVED] = 13
	L2_cache_stats_breakdown[LOCAL_ACC_R][MISS] = 805
	L2_cache_stats_breakdown[CONST_ACC_R][HIT] = 22
	L2_cache_stats_breakdown[CONST_ACC_R][HIT_RESERVED] = 6
	L2_cache_stats_breakdown[CONST_ACC_R][MISS] = 2
	L2_cache_stats_breakdown[CONST_ACC_R][RESERVATION_FAIL] = 574
	L2_cache_stats_breakdown[GLOBAL_ACC_W][HIT] = 5657
	L2_cache_stats_breakdown[GLOBAL_ACC_W][HIT_RESERVED] = 487
	L2_cache_stats_breakdown[GLOBAL_ACC_W][MISS] = 2048
	L2_cache_stats_breakdown[GLOBAL_ACC_W][RESERVATION_FAIL] = 7
	L2_cache_stats_breakdown[LOCAL_ACC_W][HIT] = 41469
	L2_cache_stats_breakdown[LOCAL_ACC_W][HIT_RESERVED] = 2
	L2_cache_stats_breakdown[LOCAL_ACC_W][MISS] = 12536
	L2_cache_stats_breakdown[LOCAL_ACC_W][RESERVATION_FAIL] = 179
	L2_cache_stats_breakdown[L1_WRBK_ACC][HIT] = 5649
	L2_cache_stats_breakdown[L1_WRBK_ACC][MISS] = 765
	L2_cache_stats_breakdown[INST_ACC_R][HIT] = 13902
	L2_cache_stats_breakdown[INST_ACC_R][HIT_RESERVED] = 145
	L2_cache_stats_breakdown[INST_ACC_R][MISS] = 63
	L2_cache_stats_breakdown[INST_ACC_R][RESERVATION_FAIL] = 5596
L2_cache_data_port_util = 0.170
L2_cache_fill_port_util = 0.035

icnt_total_pkts_mem_to_simt=216724
icnt_total_pkts_simt_to_mem=353439
LD_mem_lat_dist  0 0 0 0 0 0 0 0 0 0 0 0 0 0 0 0 0 0 0 0 0 0 0 0 0 0 0
ST_mem_lat_dist  0 0 0 0 0 0 0 0 0 0 0 0 0 0 0 0 0 0 0 0 0 0 0 0 0 0 0
----------------------------Interconnect-DETAILS--------------------------------
Class 0:
Packet latency average = 16.3542
	minimum = 6
	maximum = 703
Network latency average = 13.0553
	minimum = 6
	maximum = 678
Slowest packet = 707
Flit latency average = 11.9396
	minimum = 6
	maximum = 674
Slowest flit = 10925
Fragmentation average = 0.0901394
	minimum = 0
	maximum = 551
Injected packet rate average = 0.045883
	minimum = 0.0387576 (at node 2)
	maximum = 0.0517925 (at node 17)
Accepted packet rate average = 0.045883
	minimum = 0.0367126 (at node 2)
	maximum = 0.0550336 (at node 17)
Injected flit rate average = 0.135797
	minimum = 0.110357 (at node 24)
	maximum = 0.163268 (at node 3)
Accepted flit rate average= 0.135797
	minimum = 0.074242 (at node 2)
	maximum = 0.194 (at node 17)
Injected packet length average = 2.95964
Accepted packet length average = 2.95964
Total in-flight flits = 0 (0 measured)
====== Overall Traffic Statistics ======
====== Traffic class 0 ======
Packet latency average = 16.3542 (1 samples)
	minimum = 6 (1 samples)
	maximum = 703 (1 samples)
Network latency average = 13.0553 (1 samples)
	minimum = 6 (1 samples)
	maximum = 678 (1 samples)
Flit latency average = 11.9396 (1 samples)
	minimum = 6 (1 samples)
	maximum = 674 (1 samples)
Fragmentation average = 0.0901394 (1 samples)
	minimum = 0 (1 samples)
	maximum = 551 (1 samples)
Injected packet rate average = 0.045883 (1 samples)
	minimum = 0.0387576 (1 samples)
	maximum = 0.0517925 (1 samples)
Accepted packet rate average = 0.045883 (1 samples)
	minimum = 0.0367126 (1 samples)
	maximum = 0.0550336 (1 samples)
Injected flit rate average = 0.135797 (1 samples)
	minimum = 0.110357 (1 samples)
	maximum = 0.163268 (1 samples)
Accepted flit rate average = 0.135797 (1 samples)
	minimum = 0.074242 (1 samples)
	maximum = 0.194 (1 samples)
Injected packet size average = 2.95964 (1 samples)
Accepted packet size average = 2.95964 (1 samples)
Hops average = 1 (1 samples)
----------------------------END-of-Interconnect-DETAILS-------------------------


gpgpu_simulation_time = 0 days, 0 hrs, 3 min, 10 sec (190 sec)
gpgpu_simulation_rate = 329908 (inst/sec)
gpgpu_simulation_rate = 818 (cycle/sec)
GPGPU-Sim: synchronize waiting for inactive GPU simulation
GPGPU-Sim API: Stream Manager State
GPGPU-Sim: detected inactive GPU simulation thread

checksum=75ef40cb5b8e
Kernel Time: 189948.484375 
