

        *** GPGPU-Sim Simulator Version 3.2.2  [build 0] ***


GPGPU-Sim PTX: simulation mode 0 (can change with PTX_SIM_MODE_FUNC environment variable:
               1=functional simulation only, 0=detailed performance simulator)
GPGPU-Sim: Configuration options:

-network_mode                           1 # Interconnection network mode
-inter_config_file   config_fermi_islip.icnt # Interconnection network config file
-gpgpu_ptx_use_cuobjdump                    1 # Use cuobjdump to extract ptx and sass from binaries
-gpgpu_experimental_lib_support                    0 # Try to extract code from cuda libraries [Broken because of unknown cudaGetExportTable]
-gpgpu_ptx_convert_to_ptxplus                    0 # Convert SASS (native ISA) to ptxplus and run ptxplus
-gpgpu_ptx_force_max_capability                   20 # Force maximum compute capability
-gpgpu_ptx_inst_debug_to_file                    0 # Dump executed instructions' debug information to file
-gpgpu_ptx_inst_debug_file       inst_debug.txt # Executed instructions' debug output file
-gpgpu_ptx_inst_debug_thread_uid                    1 # Thread UID for executed instructions' debug output
-gpgpu_simd_model                       1 # 1 = post-dominator
-gpgpu_shader_core_pipeline              1536:32 # shader core pipeline config, i.e., {<nthread>:<warpsize>}
-gpgpu_tex_cache:l1  4:128:24,L:R:m:N:L,F:128:4,128:2 # per-shader L1 texture cache  (READ-ONLY) config  {<nsets>:<bsize>:<assoc>,<rep>:<wr>:<alloc>:<wr_alloc>,<mshr>:<N>:<merge>,<mq>:<rf>}
-gpgpu_const_cache:l1 64:64:2,L:R:f:N:L,A:2:32,4 # per-shader L1 constant memory cache  (READ-ONLY) config  {<nsets>:<bsize>:<assoc>,<rep>:<wr>:<alloc>:<wr_alloc>,<mshr>:<N>:<merge>,<mq>} 
-gpgpu_cache:il1     4:128:4,L:R:f:N:L,A:2:32,4 # shader L1 instruction cache config  {<nsets>:<bsize>:<assoc>,<rep>:<wr>:<alloc>:<wr_alloc>,<mshr>:<N>:<merge>,<mq>} 
-gpgpu_cache:dl1     32:128:4,L:L:m:N:H,A:32:8,8 # per-shader L1 data cache config  {<nsets>:<bsize>:<assoc>,<rep>:<wr>:<alloc>:<wr_alloc>,<mshr>:<N>:<merge>,<mq> | none}
-gpgpu_cache:dl1PrefL1                 none # per-shader L1 data cache config  {<nsets>:<bsize>:<assoc>,<rep>:<wr>:<alloc>:<wr_alloc>,<mshr>:<N>:<merge>,<mq> | none}
-gpgpu_cache:dl1PreShared                 none # per-shader L1 data cache config  {<nsets>:<bsize>:<assoc>,<rep>:<wr>:<alloc>:<wr_alloc>,<mshr>:<N>:<merge>,<mq> | none}
-gmem_skip_L1D                          0 # global memory access skip L1D cache (implements -Xptxas -dlcm=cg, default=no skip)
-gpgpu_perfect_mem                      0 # enable perfect memory mode (no cache miss)
-n_regfile_gating_group                    4 # group of lanes that should be read/written together)
-gpgpu_clock_gated_reg_file                    0 # enable clock gated reg file for power calculations
-gpgpu_clock_gated_lanes                    0 # enable clock gated lanes for power calculations
-gpgpu_shader_registers                32768 # Number of registers per shader core. Limits number of concurrent CTAs. (default 8192)
-gpgpu_shader_cta                       8 # Maximum number of concurrent CTAs in shader (default 8)
-gpgpu_num_cta_barriers                   16 # Maximum number of named barriers per CTA (default 16)
-gpgpu_n_clusters                      15 # number of processing clusters
-gpgpu_n_cores_per_cluster                    1 # number of simd cores per cluster
-gpgpu_n_cluster_ejection_buffer_size                    8 # number of packets in ejection buffer
-gpgpu_n_ldst_response_buffer_size                    2 # number of response packets in ld/st unit ejection buffer
-gpgpu_shmem_size                   16384 # Size of shared memory per shader core (default 16kB)
-gpgpu_shmem_size                   49152 # Size of shared memory per shader core (default 16kB)
-gpgpu_shmem_size_PrefL1                16384 # Size of shared memory per shader core (default 16kB)
-gpgpu_shmem_size_PrefShared                16384 # Size of shared memory per shader core (default 16kB)
-gpgpu_shmem_num_banks                   32 # Number of banks in the shared memory in each shader core (default 16)
-gpgpu_shmem_limited_broadcast                    0 # Limit shared memory to do one broadcast per cycle (default on)
-gpgpu_shmem_warp_parts                    1 # Number of portions a warp is divided into for shared memory bank conflict check 
-gpgpu_warpdistro_shader                   -1 # Specify which shader core to collect the warp size distribution from
-gpgpu_warp_issue_shader                    0 # Specify which shader core to collect the warp issue distribution from
-gpgpu_local_mem_map                    1 # Mapping from local memory space address to simulated GPU physical address space (default = enabled)
-gpgpu_num_reg_banks                   16 # Number of register banks (default = 8)
-gpgpu_reg_bank_use_warp_id                    0 # Use warp ID in mapping registers to banks (default = off)
-gpgpu_operand_collector_num_units_sp                    6 # number of collector units (default = 4)
-gpgpu_operand_collector_num_units_sfu                    8 # number of collector units (default = 4)
-gpgpu_operand_collector_num_units_mem                    2 # number of collector units (default = 2)
-gpgpu_operand_collector_num_units_gen                    0 # number of collector units (default = 0)
-gpgpu_operand_collector_num_in_ports_sp                    2 # number of collector unit in ports (default = 1)
-gpgpu_operand_collector_num_in_ports_sfu                    1 # number of collector unit in ports (default = 1)
-gpgpu_operand_collector_num_in_ports_mem                    1 # number of collector unit in ports (default = 1)
-gpgpu_operand_collector_num_in_ports_gen                    0 # number of collector unit in ports (default = 0)
-gpgpu_operand_collector_num_out_ports_sp                    2 # number of collector unit in ports (default = 1)
-gpgpu_operand_collector_num_out_ports_sfu                    1 # number of collector unit in ports (default = 1)
-gpgpu_operand_collector_num_out_ports_mem                    1 # number of collector unit in ports (default = 1)
-gpgpu_operand_collector_num_out_ports_gen                    0 # number of collector unit in ports (default = 0)
-gpgpu_coalesce_arch                   13 # Coalescing arch (default = 13, anything else is off for now)
-gpgpu_num_sched_per_core                    2 # Number of warp schedulers per core
-gpgpu_max_insn_issue_per_warp                    1 # Max number of instructions that can be issued per warp in one cycle by scheduler
-gpgpu_simt_core_sim_order                    1 # Select the simulation order of cores in a cluster (0=Fix, 1=Round-Robin)
-gpgpu_pipeline_widths        2,1,1,2,1,1,2 # Pipeline widths ID_OC_SP,ID_OC_SFU,ID_OC_MEM,OC_EX_SP,OC_EX_SFU,OC_EX_MEM,EX_WB
-gpgpu_num_sp_units                     2 # Number of SP units (default=1)
-gpgpu_num_sfu_units                    1 # Number of SF units (default=1)
-gpgpu_num_mem_units                    1 # Number if ldst units (default=1) WARNING: not hooked up to anything
-gpgpu_scheduler                      gto # Scheduler configuration: < lrr | gto | two_level_active > If two_level_active:<num_active_warps>:<inner_prioritization>:<outer_prioritization>For complete list of prioritization values see shader.h enum scheduler_prioritization_typeDefault: gto
-gpgpu_dram_scheduler                    1 # 0 = fifo, 1 = FR-FCFS (defaul)
-gpgpu_dram_partition_queues              8:8:8:8 # i2$:$2d:d2$:$2i
-l2_ideal                               0 # Use a ideal L2 cache that always hit
-gpgpu_cache:dl2     64:128:8,L:B:m:W:L,A:32:4,4:0,32 # unified banked L2 data cache config  {<nsets>:<bsize>:<assoc>,<rep>:<wr>:<alloc>:<wr_alloc>,<mshr>:<N>:<merge>,<mq>}
-gpgpu_cache:dl2_texture_only                    0 # L2 cache used for texture only
-gpgpu_n_mem                            6 # number of memory modules (e.g. memory controllers) in gpu
-gpgpu_n_sub_partition_per_mchannel                    2 # number of memory subpartition in each memory module
-gpgpu_n_mem_per_ctrlr                    2 # number of memory chips per memory controller
-gpgpu_memlatency_stat                   14 # track and display latency statistics 0x2 enables MC, 0x4 enables queue logs
-gpgpu_frfcfs_dram_sched_queue_size                   16 # 0 = unlimited (default); # entries per chip
-gpgpu_dram_return_queue_size                  116 # 0 = unlimited (default); # entries per chip
-gpgpu_dram_buswidth                    1 # default = 4 bytes (8 bytes per cycle at DDR)
-gpgpu_dram_burst_length                    8 # Burst length of each DRAM request (default = 4 data bus cycle)
-dram_data_command_freq_ratio                    4 # Frequency ratio between DRAM data bus and command bus (default = 2 times, i.e. DDR)
-gpgpu_dram_timing_opt nbk=16:CCD=2:RRD=6:RCD=12:RAS=28:RP=12:RC=40: CL=12:WL=4:CDLR=5:WR=12:nbkgrp=4:CCDL=3:RTPL=2 # DRAM timing parameters = {nbk:tCCD:tRRD:tRCD:tRAS:tRP:tRC:CL:WL:tCDLR:tWR:nbkgrp:tCCDL:tRTPL}
-rop_latency                          120 # ROP queue latency (default 85)
-dram_latency                         100 # DRAM latency (default 30)
-gpgpu_mem_addr_mapping dramid@8;00000000.00000000.00000000.00000000.0000RRRR.RRRRRRRR.BBBCCCCB.CCSSSSSS # mapping memory address to dram model {dramid@<start bit>;<memory address map>}
-gpgpu_mem_addr_test                    0 # run sweep test to check address mapping for aliased address
-gpgpu_mem_address_mask                    1 # 0 = old addressing mask, 1 = new addressing mask, 2 = new add. mask + flipped bank sel and chip sel bits
-gpuwattch_xml_file  gpuwattch_gtx480.xml # GPUWattch XML file
-power_simulation_enabled                    1 # Turn on power simulator (1=On, 0=Off)
-power_per_cycle_dump                    0 # Dump detailed power output each cycle
-power_trace_enabled                    0 # produce a file for the power trace (1=On, 0=Off)
-power_trace_zlevel                     6 # Compression level of the power trace output log (0=no comp, 9=highest)
-steady_power_levels_enabled                    0 # produce a file for the steady power levels (1=On, 0=Off)
-steady_state_definition                  8:4 # allowed deviation:number of samples
-gpgpu_max_cycle                        0 # terminates gpu simulation early (0 = no limit)
-gpgpu_max_insn                         0 # terminates gpu simulation early (0 = no limit)
-gpgpu_max_cta                          0 # terminates gpu simulation early (0 = no limit)
-gpgpu_runtime_stat                   500 # display runtime statistics such as dram utilization {<freq>:<flag>}
-liveness_message_freq                    1 # Minimum number of seconds between simulation liveness messages (0 = always print)
-gpgpu_flush_l1_cache                    0 # Flush L1 cache at the end of each kernel call
-gpgpu_flush_l2_cache                    0 # Flush L2 cache at the end of each kernel call
-gpgpu_deadlock_detect                    1 # Stop the simulation at deadlock (1=on (default), 0=off)
-gpgpu_ptx_instruction_classification                    0 # if enabled will classify ptx instruction types per kernel (Max 255 kernels now)
-gpgpu_ptx_sim_mode                     0 # Select between Performance (default) or Functional simulation (1)
-gpgpu_clock_domains 700.0:700.0:700.0:924.0 # Clock Domain Frequencies in MhZ {<Core Clock>:<ICNT Clock>:<L2 Clock>:<DRAM Clock>}
-gpgpu_max_concurrent_kernel                    8 # maximum kernels that can run concurrently on GPU
-gpgpu_cflog_interval                    0 # Interval between each snapshot in control flow logger
-visualizer_enabled                     0 # Turn on visualizer output (1=On, 0=Off)
-visualizer_outputfile                 NULL # Specifies the output log file for visualizer
-visualizer_zlevel                      6 # Compression level of the visualizer output log (0=no comp, 9=highest)
-trace_enabled                          0 # Turn on traces
-trace_components                    none # comma seperated list of traces to enable. Complete list found in trace_streams.tup. Default none
-trace_sampling_core                    0 # The core which is printed using CORE_DPRINTF. Default 0
-trace_sampling_memory_partition                   -1 # The memory partition which is printed using MEMPART_DPRINTF. Default -1 (i.e. all)
-enable_ptx_file_line_stats                    1 # Turn on PTX source line statistic profiling. (1 = On)
-ptx_line_stats_filename gpgpu_inst_stats.txt # Output file for PTX source line statistics.
-save_embedded_ptx                      0 # saves ptx files embedded in binary as <n>.ptx
-keep                                   0 # keep intermediate files created by GPGPU-Sim when interfacing with external programs
-gpgpu_ptx_save_converted_ptxplus                    0 # Saved converted ptxplus to a file
-ptx_opcode_latency_int         4,13,4,5,145 # Opcode latencies for integers <ADD,MAX,MUL,MAD,DIV>Default 1,1,19,25,145
-ptx_opcode_latency_fp          4,13,4,5,39 # Opcode latencies for single precision floating points <ADD,MAX,MUL,MAD,DIV>Default 1,1,1,1,30
-ptx_opcode_latency_dp         8,19,8,8,330 # Opcode latencies for double precision floating points <ADD,MAX,MUL,MAD,DIV>Default 8,8,8,8,335
-ptx_opcode_initiation_int            1,2,2,1,8 # Opcode initiation intervals for integers <ADD,MAX,MUL,MAD,DIV>Default 1,1,4,4,32
-ptx_opcode_initiation_fp            1,2,1,1,4 # Opcode initiation intervals for single precision floating points <ADD,MAX,MUL,MAD,DIV>Default 1,1,1,1,5
-ptx_opcode_initiation_dp         8,16,8,8,130 # Opcode initiation intervals for double precision floating points <ADD,MAX,MUL,MAD,DIV>Default 8,8,8,8,130
DRAM Timing Options:
nbk                                    16 # number of banks
CCD                                     2 # column to column delay
RRD                                     6 # minimal delay between activation of rows in different banks
RCD                                    12 # row to column delay
RAS                                    28 # time needed to activate row
RP                                     12 # time needed to precharge (deactivate) row
RC                                     40 # row cycle time
CDLR                                    5 # switching from write to read (changes tWTR)
WR                                     12 # last data-in to row precharge
CL                                     12 # CAS latency
WL                                      4 # Write latency
nbkgrp                                  4 # number of bank groups
CCDL                                    3 # column to column delay between accesses to different bank groups
RTPL                                    2 # read to precharge delay between accesses to different bank groups
Total number of memory sub partition = 12
addr_dec_mask[CHIP]  = 0000000000000000 	high:64 low:0
addr_dec_mask[BK]    = 000000000000e100 	high:16 low:8
addr_dec_mask[ROW]   = 000000000fff0000 	high:28 low:16
addr_dec_mask[COL]   = 0000000000001eff 	high:13 low:0
addr_dec_mask[BURST] = 000000000000003f 	high:6 low:0
sub_partition_id_mask = 0000000000000100
GPGPU-Sim uArch: clock freqs: 700000000.000000:700000000.000000:700000000.000000:924000000.000000
GPGPU-Sim uArch: clock periods: 0.00000000142857142857:0.00000000142857142857:0.00000000142857142857:0.00000000108225108225
*** Initializing Memory Statistics ***
GPGPU-Sim uArch: interconnect node map (shaderID+MemID to icntID)
GPGPU-Sim uArch: Memory nodes ID start from index: 15
GPGPU-Sim uArch:    0   1   2   3   4
GPGPU-Sim uArch:    5   6   7   8   9
GPGPU-Sim uArch:   10  11  12  13  14
GPGPU-Sim uArch:   15  16  17  18  19
GPGPU-Sim uArch:   20  21  22  23  24
GPGPU-Sim uArch:   25  26
GPGPU-Sim uArch: interconnect node reverse map (icntID to shaderID+MemID)
GPGPU-Sim uArch: Memory nodes start from ID: 15
GPGPU-Sim uArch:    0   1   2   3   4
GPGPU-Sim uArch:    5   6   7   8   9
GPGPU-Sim uArch:   10  11  12  13  14
GPGPU-Sim uArch:   15  16  17  18  19
GPGPU-Sim uArch:   20  21  22  23  24
GPGPU-Sim uArch:   25  26
2a552cef618c3eed1202856b15bdbc61  /home/scratch/adwait/applications/benchmarks/CUDA/RAY/gpgpu_ptx_sim__RAY
GPGPU-Sim uArch: performance model initialization complete.
GPGPU-Sim PTX: __cudaRegisterFatBinary, fat_cubin_handle = 1, filename=rayTracing.cu
self exe links to: /home/scratch/adwait/applications/benchmarks/CUDA/RAY/gpgpu_ptx_sim__RAY
Running md5sum using "md5sum /home/scratch/adwait/applications/benchmarks/CUDA/RAY/gpgpu_ptx_sim__RAY "
Running cuobjdump using "$CUDA_INSTALL_PATH/bin/cuobjdump -ptx -elf -sass /home/scratch/adwait/applications/benchmarks/CUDA/RAY/gpgpu_ptx_sim__RAY > _cuobjdump_complete_output_Q9xr3q"
Parsing file _cuobjdump_complete_output_Q9xr3q
######### cuobjdump parser ########
## Adding new section ELF
Adding arch: sm_20
Adding identifier: rayTracing.cu
## Adding new section PTX
Adding ptx filename: _cuobjdump_1.ptx
Adding arch: sm_20
Adding identifier: rayTracing.cu
Done parsing!!!
GPGPU-Sim PTX: __cudaRegisterFunction _Z6renderPjP4Nodejjff : hostFun 0x0x40d033, fat_cubin_handle = 1
GPGPU-Sim PTX: allocating stack frame region for .param "__cudaretf__Zmi6float3S_" from 0x0 to 0xc
GPGPU-Sim PTX: allocating stack frame region for .param "__cudaparmf1__Zmi6float3S_" from 0xc to 0x18
GPGPU-Sim PTX: allocating stack frame region for .param "__cudaparmf2__Zmi6float3S_" from 0x18 to 0x24
GPGPU-Sim PTX: allocating stack frame region for .param "__cudaretf__Z9normalize6float3" from 0x0 to 0xc
GPGPU-Sim PTX: allocating stack frame region for .param "__cudaparmf1__Z9normalize6float3" from 0xc to 0x18
GPGPU-Sim PTX: allocating stack frame region for .param "__cudaretf__Z18intersectionSphere5Rayon6float3f" from 0x0 to 0x4
GPGPU-Sim PTX: allocating stack frame region for .param "__cudaparmf1__Z18intersectionSphere5Rayon6float3f" from 0x4 to 0x1c
GPGPU-Sim PTX: allocating stack frame region for .param "__cudaparmf2__Z18intersectionSphere5Rayon6float3f" from 0x1c to 0x28
GPGPU-Sim PTX: allocating stack frame region for .param "__cudaparmf3__Z18intersectionSphere5Rayon6float3f" from 0x28 to 0x2c
GPGPU-Sim PTX: allocating stack frame region for .param "__cudaretf__Z16intersectionPlan5Rayon6float3S0_" from 0x0 to 0x4
GPGPU-Sim PTX: allocating stack frame region for .param "__cudaparmf1__Z16intersectionPlan5Rayon6float3S0_" from 0x4 to 0x1c
GPGPU-Sim PTX: allocating stack frame region for .param "__cudaparmf2__Z16intersectionPlan5Rayon6float3S0_" from 0x1c to 0x28
GPGPU-Sim PTX: allocating stack frame region for .param "__cudaparmf3__Z16intersectionPlan5Rayon6float3S0_" from 0x28 to 0x34
GPGPU-Sim PTX: allocating stack frame region for .param "__cudaretf__Z10getNormale6float3S_" from 0x0 to 0xc
GPGPU-Sim PTX: allocating stack frame region for .param "__cudaparmf1__Z10getNormale6float3S_" from 0xc to 0x18
GPGPU-Sim PTX: allocating stack frame region for .param "__cudaparmf2__Z10getNormale6float3S_" from 0x18 to 0x24
GPGPU-Sim PTX: allocating stack frame region for .param "__cudaretf__Z11getNormaleP6float3" from 0x0 to 0xc
GPGPU-Sim PTX: allocating stack frame region for .param "__cudaparmf1__Z11getNormaleP6float3" from 0xc to 0x18
GPGPU-Sim PTX: allocating stack frame region for .param "__cudaretf__Z14rgbaFloatToInt6float4" from 0x0 to 0x4
GPGPU-Sim PTX: allocating stack frame region for .param "__cudaparmf1__Z14rgbaFloatToInt6float4" from 0x4 to 0x14
GPGPU-Sim PTX: allocating stack frame region for .param "__cudaretf__Z12notShadowRayP4Node6float3S1_f" from 0x0 to 0x4
GPGPU-Sim PTX: allocating stack frame region for .param "__cudaparmf1__Z12notShadowRayP4Node6float3S1_f" from 0x4 to 0xc
GPGPU-Sim PTX: allocating stack frame region for .param "__cudaparmf2__Z12notShadowRayP4Node6float3S1_f" from 0xc to 0x18
GPGPU-Sim PTX: allocating stack frame region for .param "__cudaparmf3__Z12notShadowRayP4Node6float3S1_f" from 0x18 to 0x24
GPGPU-Sim PTX: allocating stack frame region for .param "__cudaparmf4__Z12notShadowRayP4Node6float3S1_f" from 0x24 to 0x28
GPGPU-Sim PTX: allocating stack frame region for .param "__cudaretf__Z15float2int_pow20f" from 0x0 to 0x4
GPGPU-Sim PTX: allocating stack frame region for .param "__cudaparmf1__Z15float2int_pow20f" from 0x4 to 0x8
GPGPU-Sim PTX: allocating stack frame region for .param "__cudaretf__Z15float2int_pow50f" from 0x0 to 0x4
GPGPU-Sim PTX: allocating stack frame region for .param "__cudaparmf1__Z15float2int_pow50f" from 0x4 to 0x8
GPGPU-Sim PTX: allocating stack frame region for .param "__cudaparmf1__ZN4dim3C1Ejjj" from 0x0 to 0x8
GPGPU-Sim PTX: allocating stack frame region for .param "__cudaparmf2__ZN4dim3C1Ejjj" from 0x8 to 0xc
GPGPU-Sim PTX: allocating stack frame region for .param "__cudaparmf3__ZN4dim3C1Ejjj" from 0xc to 0x10
GPGPU-Sim PTX: allocating stack frame region for .param "__cudaparmf4__ZN4dim3C1Ejjj" from 0x10 to 0x14
GPGPU-Sim PTX: instruction assembly for function '_Zmi6float3S_'...   done.
GPGPU-Sim PTX: finding reconvergence points for '_Zmi6float3S_'...
GPGPU-Sim PTX: Finding dominators for '_Zmi6float3S_'...
GPGPU-Sim PTX: Finding immediate dominators for '_Zmi6float3S_'...
GPGPU-Sim PTX: Finding postdominators for '_Zmi6float3S_'...
GPGPU-Sim PTX: Finding immediate postdominators for '_Zmi6float3S_'...
GPGPU-Sim PTX: pre-decoding instructions for '_Zmi6float3S_'...
GPGPU-Sim PTX: reconvergence points for _Zmi6float3S_...
GPGPU-Sim PTX: ... end of reconvergence points for _Zmi6float3S_
GPGPU-Sim PTX: ... done pre-decoding instructions for '_Zmi6float3S_'.
GPGPU-Sim PTX: instruction assembly for function '_Z9normalize6float3'...   done.
GPGPU-Sim PTX: finding reconvergence points for '_Z9normalize6float3'...
GPGPU-Sim PTX: Finding dominators for '_Z9normalize6float3'...
GPGPU-Sim PTX: Finding immediate dominators for '_Z9normalize6float3'...
GPGPU-Sim PTX: Finding postdominators for '_Z9normalize6float3'...
GPGPU-Sim PTX: Finding immediate postdominators for '_Z9normalize6float3'...
GPGPU-Sim PTX: pre-decoding instructions for '_Z9normalize6float3'...
GPGPU-Sim PTX: reconvergence points for _Z9normalize6float3...
GPGPU-Sim PTX: ... end of reconvergence points for _Z9normalize6float3
GPGPU-Sim PTX: ... done pre-decoding instructions for '_Z9normalize6float3'.
GPGPU-Sim PTX: instruction assembly for function '_Z18intersectionSphere5Rayon6float3f'...   done.
GPGPU-Sim PTX: finding reconvergence points for '_Z18intersectionSphere5Rayon6float3f'...
GPGPU-Sim PTX: Finding dominators for '_Z18intersectionSphere5Rayon6float3f'...
GPGPU-Sim PTX: Finding immediate dominators for '_Z18intersectionSphere5Rayon6float3f'...
GPGPU-Sim PTX: Finding postdominators for '_Z18intersectionSphere5Rayon6float3f'...
GPGPU-Sim PTX: Finding immediate postdominators for '_Z18intersectionSphere5Rayon6float3f'...
GPGPU-Sim PTX: pre-decoding instructions for '_Z18intersectionSphere5Rayon6float3f'...
GPGPU-Sim PTX: reconvergence points for _Z18intersectionSphere5Rayon6float3f...
GPGPU-Sim PTX:  1 (potential) branch divergence @  PC=0x250 (_1.ptx:173) @%p2 bra $Lt_2_3074;
GPGPU-Sim PTX:    immediate post dominator      @  PC=0x2c0 (_1.ptx:193) mov.f32 %f39, %f32;
GPGPU-Sim PTX:  2 (potential) branch divergence @  PC=0x260 (_1.ptx:175) bra.uni $Lt_2_2818;
GPGPU-Sim PTX:    immediate post dominator      @  PC=0x2c0 (_1.ptx:193) mov.f32 %f39, %f32;
GPGPU-Sim PTX:  3 (potential) branch divergence @  PC=0x280 (_1.ptx:180) @!%p3 bra $Lt_2_3586;
GPGPU-Sim PTX:    immediate post dominator      @  PC=0x2c0 (_1.ptx:193) mov.f32 %f39, %f32;
GPGPU-Sim PTX:  4 (potential) branch divergence @  PC=0x290 (_1.ptx:182) bra.uni $Lt_2_3330;
GPGPU-Sim PTX:    immediate post dominator      @  PC=0x2c0 (_1.ptx:193) mov.f32 %f39, %f32;
GPGPU-Sim PTX: ... end of reconvergence points for _Z18intersectionSphere5Rayon6float3f
GPGPU-Sim PTX: ... done pre-decoding instructions for '_Z18intersectionSphere5Rayon6float3f'.
GPGPU-Sim PTX: instruction assembly for function '_Z16intersectionPlan5Rayon6float3S0_'...   done.
GPGPU-Sim PTX: finding reconvergence points for '_Z16intersectionPlan5Rayon6float3S0_'...
GPGPU-Sim PTX: Finding dominators for '_Z16intersectionPlan5Rayon6float3S0_'...
GPGPU-Sim PTX: Finding immediate dominators for '_Z16intersectionPlan5Rayon6float3S0_'...
GPGPU-Sim PTX: Finding postdominators for '_Z16intersectionPlan5Rayon6float3S0_'...
GPGPU-Sim PTX: Finding immediate postdominators for '_Z16intersectionPlan5Rayon6float3S0_'...
GPGPU-Sim PTX: pre-decoding instructions for '_Z16intersectionPlan5Rayon6float3S0_'...
GPGPU-Sim PTX: reconvergence points for _Z16intersectionPlan5Rayon6float3S0_...
GPGPU-Sim PTX:  1 (potential) branch divergence @  PC=0x320 (_1.ptx:214) @!%p1 bra $Lt_3_2050;
GPGPU-Sim PTX:    immediate post dominator      @  PC=0x368 (_1.ptx:227) mov.f32 %f14, %f9;
GPGPU-Sim PTX:  2 (potential) branch divergence @  PC=0x330 (_1.ptx:216) bra.uni $Lt_3_1794;
GPGPU-Sim PTX:    immediate post dominator      @  PC=0x368 (_1.ptx:227) mov.f32 %f14, %f9;
GPGPU-Sim PTX: ... end of reconvergence points for _Z16intersectionPlan5Rayon6float3S0_
GPGPU-Sim PTX: ... done pre-decoding instructions for '_Z16intersectionPlan5Rayon6float3S0_'.
GPGPU-Sim PTX: instruction assembly for function '_Z10getNormale6float3S_'...   done.
GPGPU-Sim PTX: finding reconvergence points for '_Z10getNormale6float3S_'...
GPGPU-Sim PTX: Finding dominators for '_Z10getNormale6float3S_'...
GPGPU-Sim PTX: Finding immediate dominators for '_Z10getNormale6float3S_'...
GPGPU-Sim PTX: Finding postdominators for '_Z10getNormale6float3S_'...
GPGPU-Sim PTX: Finding immediate postdominators for '_Z10getNormale6float3S_'...
GPGPU-Sim PTX: pre-decoding instructions for '_Z10getNormale6float3S_'...
GPGPU-Sim PTX: reconvergence points for _Z10getNormale6float3S_...
GPGPU-Sim PTX: ... end of reconvergence points for _Z10getNormale6float3S_
GPGPU-Sim PTX: ... done pre-decoding instructions for '_Z10getNormale6float3S_'.
GPGPU-Sim PTX: instruction assembly for function '_Z11getNormaleP6float3'...   done.
GPGPU-Sim PTX: finding reconvergence points for '_Z11getNormaleP6float3'...
GPGPU-Sim PTX: Finding dominators for '_Z11getNormaleP6float3'...
GPGPU-Sim PTX: Finding immediate dominators for '_Z11getNormaleP6float3'...
GPGPU-Sim PTX: Finding postdominators for '_Z11getNormaleP6float3'...
GPGPU-Sim PTX: Finding immediate postdominators for '_Z11getNormaleP6float3'...
GPGPU-Sim PTX: pre-decoding instructions for '_Z11getNormaleP6float3'...
GPGPU-Sim PTX: reconvergence points for _Z11getNormaleP6float3...
GPGPU-Sim PTX: ... end of reconvergence points for _Z11getNormaleP6float3
GPGPU-Sim PTX: ... done pre-decoding instructions for '_Z11getNormaleP6float3'.
GPGPU-Sim PTX: instruction assembly for function '_Z14rgbaFloatToInt6float4'...   done.
GPGPU-Sim PTX: finding reconvergence points for '_Z14rgbaFloatToInt6float4'...
GPGPU-Sim PTX: Finding dominators for '_Z14rgbaFloatToInt6float4'...
GPGPU-Sim PTX: Finding immediate dominators for '_Z14rgbaFloatToInt6float4'...
GPGPU-Sim PTX: Finding postdominators for '_Z14rgbaFloatToInt6float4'...
GPGPU-Sim PTX: Finding immediate postdominators for '_Z14rgbaFloatToInt6float4'...
GPGPU-Sim PTX: pre-decoding instructions for '_Z14rgbaFloatToInt6float4'...
GPGPU-Sim PTX: reconvergence points for _Z14rgbaFloatToInt6float4...
GPGPU-Sim PTX: ... end of reconvergence points for _Z14rgbaFloatToInt6float4
GPGPU-Sim PTX: ... done pre-decoding instructions for '_Z14rgbaFloatToInt6float4'.
GPGPU-Sim PTX: allocating global region for "cnode" from 0x100 to 0x1a0 (global memory space)
GPGPU-Sim PTX: instruction assembly for function '_Z12notShadowRayP4Node6float3S1_f'...   done.
GPGPU-Sim PTX: finding reconvergence points for '_Z12notShadowRayP4Node6float3S1_f'...
GPGPU-Sim PTX: Finding dominators for '_Z12notShadowRayP4Node6float3S1_f'...
GPGPU-Sim PTX: Finding immediate dominators for '_Z12notShadowRayP4Node6float3S1_f'...
GPGPU-Sim PTX: Finding postdominators for '_Z12notShadowRayP4Node6float3S1_f'...
GPGPU-Sim PTX: Finding immediate postdominators for '_Z12notShadowRayP4Node6float3S1_f'...
GPGPU-Sim PTX: pre-decoding instructions for '_Z12notShadowRayP4Node6float3S1_f'...
GPGPU-Sim PTX: reconvergence points for _Z12notShadowRayP4Node6float3S1_f...
GPGPU-Sim PTX:  1 (potential) branch divergence @  PC=0x638 (_1.ptx:364) @%p1 bra $Lt_7_8450;
GPGPU-Sim PTX:    immediate post dominator      @  PC=0x828 (_1.ptx:441) mov.f32 %f58, 0f00000000;    // 0
GPGPU-Sim PTX:  2 (potential) branch divergence @  PC=0x658 (_1.ptx:369) @!%p2 bra $Lt_7_8962;
GPGPU-Sim PTX:    immediate post dominator      @  PC=0x6b8 (_1.ptx:385) mov.f32 %f28, %f20;
GPGPU-Sim PTX:  3 (potential) branch divergence @  PC=0x668 (_1.ptx:371) bra.uni $Lt_7_8706;
GPGPU-Sim PTX:    immediate post dominator      @  PC=0x6b8 (_1.ptx:385) mov.f32 %f28, %f20;
GPGPU-Sim PTX:  4 (potential) branch divergence @  PC=0x6c0 (_1.ptx:386) bra.uni $Lt_7_8194;
GPGPU-Sim PTX:    immediate post dominator      @  PC=0x828 (_1.ptx:441) mov.f32 %f58, 0f00000000;    // 0
GPGPU-Sim PTX:  5 (potential) branch divergence @  PC=0x7b0 (_1.ptx:418) @%p5 bra $Lt_7_9474;
GPGPU-Sim PTX:    immediate post dominator      @  PC=0x820 (_1.ptx:438) mov.f32 %f28, %f51;
GPGPU-Sim PTX:  6 (potential) branch divergence @  PC=0x7c0 (_1.ptx:420) bra.uni $Lt_7_9730;
GPGPU-Sim PTX:    immediate post dominator      @  PC=0x820 (_1.ptx:438) mov.f32 %f28, %f51;
GPGPU-Sim PTX:  7 (potential) branch divergence @  PC=0x7e0 (_1.ptx:425) @!%p6 bra $Lt_7_9986;
GPGPU-Sim PTX:    immediate post dominator      @  PC=0x820 (_1.ptx:438) mov.f32 %f28, %f51;
GPGPU-Sim PTX:  8 (potential) branch divergence @  PC=0x7f0 (_1.ptx:427) bra.uni $Lt_7_9730;
GPGPU-Sim PTX:    immediate post dominator      @  PC=0x820 (_1.ptx:438) mov.f32 %f28, %f51;
GPGPU-Sim PTX:  9 (potential) branch divergence @  PC=0x838 (_1.ptx:443) @!%p7 bra $Lt_7_10242;
GPGPU-Sim PTX:    immediate post dominator      @  PC=0x8e8 (_1.ptx:468) add.s32 %r1, %r1, 1;
GPGPU-Sim PTX: 10 (potential) branch divergence @  PC=0x8d8 (_1.ptx:463) @!%p8 bra $Lt_7_10242;
GPGPU-Sim PTX:    immediate post dominator      @  PC=0x8e8 (_1.ptx:468) add.s32 %r1, %r1, 1;
GPGPU-Sim PTX: 11 (potential) branch divergence @  PC=0x908 (_1.ptx:472) @%p9 bra $Lt_7_10754;
GPGPU-Sim PTX:    immediate post dominator      @  PC=0x960 (_1.ptx:486) selp.s32 %r10, 1, 0, %p11;
GPGPU-Sim PTX: 12 (potential) branch divergence @  PC=0x930 (_1.ptx:477) @%p10 bra $L_7_7170;
GPGPU-Sim PTX:    immediate post dominator      @  PC=0x960 (_1.ptx:486) selp.s32 %r10, 1, 0, %p11;
GPGPU-Sim PTX: 13 (potential) branch divergence @  PC=0x938 (_1.ptx:478) bra.uni $L_7_7938;
GPGPU-Sim PTX:    immediate post dominator      @  PC=0x960 (_1.ptx:486) selp.s32 %r10, 1, 0, %p11;
GPGPU-Sim PTX: ... end of reconvergence points for _Z12notShadowRayP4Node6float3S1_f
GPGPU-Sim PTX: ... done pre-decoding instructions for '_Z12notShadowRayP4Node6float3S1_f'.
GPGPU-Sim PTX: instruction assembly for function '_Z15float2int_pow20f'...   done.
GPGPU-Sim PTX: finding reconvergence points for '_Z15float2int_pow20f'...
GPGPU-Sim PTX: Finding dominators for '_Z15float2int_pow20f'...
GPGPU-Sim PTX: Finding immediate dominators for '_Z15float2int_pow20f'...
GPGPU-Sim PTX: Finding postdominators for '_Z15float2int_pow20f'...
GPGPU-Sim PTX: Finding immediate postdominators for '_Z15float2int_pow20f'...
GPGPU-Sim PTX: pre-decoding instructions for '_Z15float2int_pow20f'...
GPGPU-Sim PTX: reconvergence points for _Z15float2int_pow20f...
GPGPU-Sim PTX: ... end of reconvergence points for _Z15float2int_pow20f
GPGPU-Sim PTX: ... done pre-decoding instructions for '_Z15float2int_pow20f'.
GPGPU-Sim PTX: instruction assembly for function '_Z15float2int_pow50f'...   done.
GPGPU-Sim PTX: finding reconvergence points for '_Z15float2int_pow50f'...
GPGPU-Sim PTX: Finding dominators for '_Z15float2int_pow50f'...
GPGPU-Sim PTX: Finding immediate dominators for '_Z15float2int_pow50f'...
GPGPU-Sim PTX: Finding postdominators for '_Z15float2int_pow50f'...
GPGPU-Sim PTX: Finding immediate postdominators for '_Z15float2int_pow50f'...
GPGPU-Sim PTX: pre-decoding instructions for '_Z15float2int_pow50f'...
GPGPU-Sim PTX: reconvergence points for _Z15float2int_pow50f...
GPGPU-Sim PTX: ... end of reconvergence points for _Z15float2int_pow50f
GPGPU-Sim PTX: ... done pre-decoding instructions for '_Z15float2int_pow50f'.
GPGPU-Sim PTX: allocating constant region for "MView" from 0x200 to 0x230 (global memory space) 1
GPGPU-Sim PTX: allocating stack frame region for .local "__cuda___cuda_local_var_36206_9_non_const_pile_32240" from 0x0 to 0x50
GPGPU-Sim PTX: instruction assembly for function '_Z6renderPjP4Nodejjff'...   done.
GPGPU-Sim PTX: finding reconvergence points for '_Z6renderPjP4Nodejjff'...
GPGPU-Sim PTX: Finding dominators for '_Z6renderPjP4Nodejjff'...
GPGPU-Sim PTX: Finding immediate dominators for '_Z6renderPjP4Nodejjff'...
GPGPU-Sim PTX: Finding postdominators for '_Z6renderPjP4Nodejjff'...
GPGPU-Sim PTX: Finding immediate postdominators for '_Z6renderPjP4Nodejjff'...
GPGPU-Sim PTX: pre-decoding instructions for '_Z6renderPjP4Nodejjff'...
GPGPU-Sim PTX: reconvergence points for _Z6renderPjP4Nodejjff...
GPGPU-Sim PTX:  1 (potential) branch divergence @  PC=0xdb0 (_1.ptx:663) @%p1 bra $Lt_10_44034;
GPGPU-Sim PTX:    immediate post dominator      @  PC=0x2370 (_1.ptx:1495) exit;
GPGPU-Sim PTX:  2 (potential) branch divergence @  PC=0x1028 (_1.ptx:751) @%p2 bra $Lt_10_45570;
GPGPU-Sim PTX:    immediate post dominator      @  PC=0x11b8 (_1.ptx:815) mov.f32 %f108, 0f00000000;   // 0
GPGPU-Sim PTX:  3 (potential) branch divergence @  PC=0x1048 (_1.ptx:756) @!%p3 bra $Lt_10_46082;
GPGPU-Sim PTX:    immediate post dominator      @  PC=0x1090 (_1.ptx:769) mov.f32 %f87, %f82;
GPGPU-Sim PTX:  4 (potential) branch divergence @  PC=0x1058 (_1.ptx:758) bra.uni $Lt_10_45826;
GPGPU-Sim PTX:    immediate post dominator      @  PC=0x1090 (_1.ptx:769) mov.f32 %f87, %f82;
GPGPU-Sim PTX:  5 (potential) branch divergence @  PC=0x1098 (_1.ptx:770) bra.uni $Lt_10_45314;
GPGPU-Sim PTX:    immediate post dominator      @  PC=0x11b8 (_1.ptx:815) mov.f32 %f108, 0f00000000;   // 0
GPGPU-Sim PTX:  6 (potential) branch divergence @  PC=0x1140 (_1.ptx:793) @%p6 bra $Lt_10_46594;
GPGPU-Sim PTX:    immediate post dominator      @  PC=0x11b0 (_1.ptx:813) mov.f32 %f87, %f101;
GPGPU-Sim PTX:  7 (potential) branch divergence @  PC=0x1150 (_1.ptx:795) bra.uni $Lt_10_46850;
GPGPU-Sim PTX:    immediate post dominator      @  PC=0x11b0 (_1.ptx:813) mov.f32 %f87, %f101;
GPGPU-Sim PTX:  8 (potential) branch divergence @  PC=0x1170 (_1.ptx:800) @!%p7 bra $Lt_10_47106;
GPGPU-Sim PTX:    immediate post dominator      @  PC=0x11b0 (_1.ptx:813) mov.f32 %f87, %f101;
GPGPU-Sim PTX:  9 (potential) branch divergence @  PC=0x1180 (_1.ptx:802) bra.uni $Lt_10_46850;
GPGPU-Sim PTX:    immediate post dominator      @  PC=0x11b0 (_1.ptx:813) mov.f32 %f87, %f101;
GPGPU-Sim PTX: 10 (potential) branch divergence @  PC=0x11f8 (_1.ptx:823) @%p8 bra $Lt_10_47362;
GPGPU-Sim PTX:    immediate post dominator      @  PC=0x1210 (_1.ptx:829) add.s32 %r25, %r25, 1;
GPGPU-Sim PTX: 11 (potential) branch divergence @  PC=0x1230 (_1.ptx:833) @%p9 bra $Lt_10_45058;
GPGPU-Sim PTX:    immediate post dominator      @  PC=0x1238 (_1.ptx:834) mov.f32 %f109, 0f00000000;   // 0
GPGPU-Sim PTX: 12 (potential) branch divergence @  PC=0x1280 (_1.ptx:843) @%p10 bra $Lt_10_48130;
GPGPU-Sim PTX:    immediate post dominator      @  PC=0x2140 (_1.ptx:1416) add.s32 %r23, %r23, 1;
GPGPU-Sim PTX: 13 (potential) branch divergence @  PC=0x1330 (_1.ptx:868) @%p11 bra $Lt_10_48898;
GPGPU-Sim PTX:    immediate post dominator      @  PC=0x13b8 (_1.ptx:888) sub.f32 %f136, %f21, %f119;
GPGPU-Sim PTX: 14 (potential) branch divergence @  PC=0x1350 (_1.ptx:873) bra.uni $Lt_10_48642;
GPGPU-Sim PTX:    immediate post dominator      @  PC=0x13b8 (_1.ptx:888) sub.f32 %f136, %f21, %f119;
GPGPU-Sim PTX: 15 (potential) branch divergence @  PC=0x1430 (_1.ptx:903) @!%p12 bra $Lt_10_49410;
GPGPU-Sim PTX:    immediate post dominator      @  PC=0x1470 (_1.ptx:915) mov.f32 %f153, 0f3d4ccccd;   // 0.05
GPGPU-Sim PTX: 16 (potential) branch divergence @  PC=0x1450 (_1.ptx:908) bra.uni $Lt_10_49154;
GPGPU-Sim PTX:    immediate post dominator      @  PC=0x1470 (_1.ptx:915) mov.f32 %f153, 0f3d4ccccd;   // 0.05
GPGPU-Sim PTX: 17 (potential) branch divergence @  PC=0x1578 (_1.ptx:949) @!%p13 bra $Lt_10_58114;
GPGPU-Sim PTX:    immediate post dominator      @  PC=0x2080 (_1.ptx:1388) add.f32 %f399, %f126, %f126;
GPGPU-Sim PTX: 18 (potential) branch divergence @  PC=0x15c0 (_1.ptx:961) @%p14 bra $Lt_10_49922;
GPGPU-Sim PTX:    immediate post dominator      @  PC=0x17b0 (_1.ptx:1039) mov.f32 %f221, 0f00000000;   // 0
GPGPU-Sim PTX: 19 (potential) branch divergence @  PC=0x15e0 (_1.ptx:966) @!%p15 bra $Lt_10_50434;
GPGPU-Sim PTX:    immediate post dominator      @  PC=0x1638 (_1.ptx:982) mov.f32 %f190, %f183;
GPGPU-Sim PTX: 20 (potential) branch divergence @  PC=0x15f0 (_1.ptx:968) bra.uni $Lt_10_50178;
GPGPU-Sim PTX:    immediate post dominator      @  PC=0x1638 (_1.ptx:982) mov.f32 %f190, %f183;
GPGPU-Sim PTX: 21 (potential) branch divergence @  PC=0x1640 (_1.ptx:983) bra.uni $Lt_10_49666;
GPGPU-Sim PTX:    immediate post dominator      @  PC=0x17b0 (_1.ptx:1039) mov.f32 %f221, 0f00000000;   // 0
GPGPU-Sim PTX: 22 (potential) branch divergence @  PC=0x1738 (_1.ptx:1016) @%p18 bra $Lt_10_50946;
GPGPU-Sim PTX:    immediate post dominator      @  PC=0x17a8 (_1.ptx:1036) mov.f32 %f190, %f214;
GPGPU-Sim PTX: 23 (potential) branch divergence @  PC=0x1748 (_1.ptx:1018) bra.uni $Lt_10_51202;
GPGPU-Sim PTX:    immediate post dominator      @  PC=0x17a8 (_1.ptx:1036) mov.f32 %f190, %f214;
GPGPU-Sim PTX: 24 (potential) branch divergence @  PC=0x1768 (_1.ptx:1023) @!%p19 bra $Lt_10_51458;
GPGPU-Sim PTX:    immediate post dominator      @  PC=0x17a8 (_1.ptx:1036) mov.f32 %f190, %f214;
GPGPU-Sim PTX: 25 (potential) branch divergence @  PC=0x1778 (_1.ptx:1025) bra.uni $Lt_10_51202;
GPGPU-Sim PTX:    immediate post dominator      @  PC=0x17a8 (_1.ptx:1036) mov.f32 %f190, %f214;
GPGPU-Sim PTX: 26 (potential) branch divergence @  PC=0x17c0 (_1.ptx:1041) @!%p20 bra $Lt_10_58370;
GPGPU-Sim PTX:    immediate post dominator      @  PC=0x1828 (_1.ptx:1057) add.s32 %r50, %r50, 1;
GPGPU-Sim PTX: 27 (potential) branch divergence @  PC=0x1818 (_1.ptx:1052) @!%p21 bra $Lt_10_58370;
GPGPU-Sim PTX:    immediate post dominator      @  PC=0x1828 (_1.ptx:1057) add.s32 %r50, %r50, 1;
GPGPU-Sim PTX: 28 (potential) branch divergence @  PC=0x1848 (_1.ptx:1061) @%p22 bra $Lt_10_58882;
GPGPU-Sim PTX:    immediate post dominator      @  PC=0x1880 (_1.ptx:1071) @!%p23 bra $Lt_10_58114;
GPGPU-Sim PTX: 29 (potential) branch divergence @  PC=0x1860 (_1.ptx:1064) @%p23 bra $L_10_42498;
GPGPU-Sim PTX:    immediate post dominator      @  PC=0x1880 (_1.ptx:1071) @!%p23 bra $Lt_10_58114;
GPGPU-Sim PTX: 30 (potential) branch divergence @  PC=0x1868 (_1.ptx:1065) bra.uni $L_10_43266;
GPGPU-Sim PTX:    immediate post dominator      @  PC=0x1880 (_1.ptx:1071) @!%p23 bra $Lt_10_58114;
GPGPU-Sim PTX: 31 (potential) branch divergence @  PC=0x1880 (_1.ptx:1071) @!%p23 bra $Lt_10_58114;
GPGPU-Sim PTX:    immediate post dominator      @  PC=0x2080 (_1.ptx:1388) add.f32 %f399, %f126, %f126;
GPGPU-Sim PTX: 32 (potential) branch divergence @  PC=0x19c8 (_1.ptx:1115) @!%p24 bra $Lt_10_51714;
GPGPU-Sim PTX:    immediate post dominator      @  PC=0x2040 (_1.ptx:1375) mov.f32 %f394, 0f3f4ccccd;   // 0.8
GPGPU-Sim PTX: 33 (potential) branch divergence @  PC=0x19d8 (_1.ptx:1118) bra.uni $LDWendi___isnanf_192_1;
GPGPU-Sim PTX:    immediate post dominator      @  PC=0x2040 (_1.ptx:1375) mov.f32 %f394, 0f3f4ccccd;   // 0.8
GPGPU-Sim PTX: 34 (potential) branch divergence @  PC=0x19f8 (_1.ptx:1124) @!%p25 bra $Lt_10_7682;
GPGPU-Sim PTX:    immediate post dominator      @  PC=0x2040 (_1.ptx:1375) mov.f32 %f394, 0f3f4ccccd;   // 0.8
GPGPU-Sim PTX: 35 (potential) branch divergence @  PC=0x1a00 (_1.ptx:1125) bra.uni $Lt_10_7938;
GPGPU-Sim PTX:    immediate post dominator      @  PC=0x1a20 (_1.ptx:1133) mov.f32 %f272, 0f7f800000;   // ((1.0F)/(0.0F))
GPGPU-Sim PTX: 36 (potential) branch divergence @  PC=0x1a18 (_1.ptx:1130) bra.uni $LDWendi___isnanf_192_1;
GPGPU-Sim PTX:    immediate post dominator      @  PC=0x2040 (_1.ptx:1375) mov.f32 %f394, 0f3f4ccccd;   // 0.8
GPGPU-Sim PTX: 37 (potential) branch divergence @  PC=0x1a30 (_1.ptx:1135) @!%p26 bra $Lt_10_52226;
GPGPU-Sim PTX:    immediate post dominator      @  PC=0x2040 (_1.ptx:1375) mov.f32 %f394, 0f3f4ccccd;   // 0.8
GPGPU-Sim PTX: 38 (potential) branch divergence @  PC=0x1a40 (_1.ptx:1138) bra.uni $LDWendi___isnanf_192_1;
GPGPU-Sim PTX:    immediate post dominator      @  PC=0x2040 (_1.ptx:1375) mov.f32 %f394, 0f3f4ccccd;   // 0.8
GPGPU-Sim PTX: 39 (potential) branch divergence @  PC=0x1a58 (_1.ptx:1142) @!%p27 bra $Lt_10_52738;
GPGPU-Sim PTX:    immediate post dominator      @  PC=0x2040 (_1.ptx:1375) mov.f32 %f394, 0f3f4ccccd;   // 0.8
GPGPU-Sim PTX: 40 (potential) branch divergence @  PC=0x1ab8 (_1.ptx:1155) bra.uni $LDWendi___isnanf_192_1;
GPGPU-Sim PTX:    immediate post dominator      @  PC=0x2040 (_1.ptx:1375) mov.f32 %f394, 0f3f4ccccd;   // 0.8
GPGPU-Sim PTX: 41 (potential) branch divergence @  PC=0x1ad0 (_1.ptx:1159) @!%p29 bra $Lt_10_53250;
GPGPU-Sim PTX:    immediate post dominator      @  PC=0x2040 (_1.ptx:1375) mov.f32 %f394, 0f3f4ccccd;   // 0.8
GPGPU-Sim PTX: 42 (potential) branch divergence @  PC=0x1b20 (_1.ptx:1170) @!%p30 bra $Lt_10_53762;
GPGPU-Sim PTX:    immediate post dominator      @  PC=0x1b40 (_1.ptx:1177) mov.f32 %f268, %f284;
GPGPU-Sim PTX: 43 (potential) branch divergence @  PC=0x1b48 (_1.ptx:1178) bra.uni $LDWendi___isnanf_192_1;
GPGPU-Sim PTX:    immediate post dominator      @  PC=0x2040 (_1.ptx:1375) mov.f32 %f394, 0f3f4ccccd;   // 0.8
GPGPU-Sim PTX: 44 (potential) branch divergence @  PC=0x1b60 (_1.ptx:1183) @!%p31 bra $Lt_10_59394;
GPGPU-Sim PTX:    immediate post dominator      @  PC=0x2040 (_1.ptx:1375) mov.f32 %f394, 0f3f4ccccd;   // 0.8
GPGPU-Sim PTX: 45 (potential) branch divergence @  PC=0x1b88 (_1.ptx:1188) @!%p32 bra $Lt_10_59394;
GPGPU-Sim PTX:    immediate post dominator      @  PC=0x2040 (_1.ptx:1375) mov.f32 %f394, 0f3f4ccccd;   // 0.8
GPGPU-Sim PTX: 46 (potential) branch divergence @  PC=0x1ba0 (_1.ptx:1192) bra.uni $LDWendi___isnanf_192_1;
GPGPU-Sim PTX:    immediate post dominator      @  PC=0x2040 (_1.ptx:1375) mov.f32 %f394, 0f3f4ccccd;   // 0.8
GPGPU-Sim PTX: 47 (potential) branch divergence @  PC=0x1bd8 (_1.ptx:1202) @%p33 bra $Lt_10_54530;
GPGPU-Sim PTX:    immediate post dominator      @  PC=0x1c20 (_1.ptx:1216) sub.s32 %r64, %r64, 127;
GPGPU-Sim PTX: 48 (potential) branch divergence @  PC=0x1c10 (_1.ptx:1211) bra.uni $Lt_10_54274;
GPGPU-Sim PTX:    immediate post dominator      @  PC=0x1c20 (_1.ptx:1216) sub.s32 %r64, %r64, 127;
GPGPU-Sim PTX: 49 (potential) branch divergence @  PC=0x1c58 (_1.ptx:1224) @!%p34 bra $Lt_10_54786;
GPGPU-Sim PTX:    immediate post dominator      @  PC=0x1c78 (_1.ptx:1232) mov.f32 %f302, 0fbf800000;   // -1
GPGPU-Sim PTX: 50 (potential) branch divergence @  PC=0x1eb0 (_1.ptx:1312) @%p35 bra $Lt_10_55298;
GPGPU-Sim PTX:    immediate post dominator      @  PC=0x1ed8 (_1.ptx:1321) mov.f32 %f367, %f365;
GPGPU-Sim PTX: 51 (potential) branch divergence @  PC=0x1f98 (_1.ptx:1346) @!%p38 bra $Lt_10_55810;
GPGPU-Sim PTX:    immediate post dominator      @  PC=0x1fa8 (_1.ptx:1351) mov.f32 %f284, %f386;
GPGPU-Sim PTX: 52 (potential) branch divergence @  PC=0x2018 (_1.ptx:1365) @%p39 bra $Lt_10_56322;
GPGPU-Sim PTX:    immediate post dominator      @  PC=0x2038 (_1.ptx:1372) mov.f32 %f268, %f284;
GPGPU-Sim PTX: 53 (potential) branch divergence @  PC=0x2158 (_1.ptx:1419) @%p40 bra $L_10_42242;
GPGPU-Sim PTX:    immediate post dominator      @  PC=0x2170 (_1.ptx:1424) sub.s32 %r86, %r24, 1;
GPGPU-Sim PTX: 54 (potential) branch divergence @  PC=0x2168 (_1.ptx:1421) @%p41 bra $L_10_41474;
GPGPU-Sim PTX:    immediate post dominator      @  PC=0x2170 (_1.ptx:1424) sub.s32 %r86, %r24, 1;
GPGPU-Sim PTX: 55 (potential) branch divergence @  PC=0x2190 (_1.ptx:1428) @%p42 bra $Lt_10_56834;
GPGPU-Sim PTX:    immediate post dominator      @  PC=0x2288 (_1.ptx:1464) ld.global.u32 %r92, [%rd4+0];
GPGPU-Sim PTX: 56 (potential) branch divergence @  PC=0x2280 (_1.ptx:1461) @%p43 bra $Lt_10_57346;
GPGPU-Sim PTX:    immediate post dominator      @  PC=0x2288 (_1.ptx:1464) ld.global.u32 %r92, [%rd4+0];
GPGPU-Sim PTX: ... end of reconvergence points for _Z6renderPjP4Nodejjff
GPGPU-Sim PTX: ... done pre-decoding instructions for '_Z6renderPjP4Nodejjff'.
GPGPU-Sim PTX: instruction assembly for function '_ZN4dim3C1Ejjj'...   done.
GPGPU-Sim PTX: finding reconvergence points for '_ZN4dim3C1Ejjj'...
GPGPU-Sim PTX: Finding dominators for '_ZN4dim3C1Ejjj'...
GPGPU-Sim PTX: Finding immediate dominators for '_ZN4dim3C1Ejjj'...
GPGPU-Sim PTX: Finding postdominators for '_ZN4dim3C1Ejjj'...
GPGPU-Sim PTX: Finding immediate postdominators for '_ZN4dim3C1Ejjj'...
GPGPU-Sim PTX: pre-decoding instructions for '_ZN4dim3C1Ejjj'...
GPGPU-Sim PTX: reconvergence points for _ZN4dim3C1Ejjj...
GPGPU-Sim PTX: ... end of reconvergence points for _ZN4dim3C1Ejjj
GPGPU-Sim PTX: ... done pre-decoding instructions for '_ZN4dim3C1Ejjj'.
GPGPU-Sim PTX: finished parsing EMBEDDED .ptx file _1.ptx
Adding _cuobjdump_1.ptx with cubin handle 1
GPGPU-Sim PTX: extracting embedded .ptx to temporary file "_ptx_uGgMsy"
Running: cat _ptx_uGgMsy | sed 's/.version 1.5/.version 1.4/' | sed 's/, texmode_independent//' | sed 's/\(\.extern \.const\[1\] .b8 \w\+\)\[\]/\1\[1\]/' | sed 's/const\[.\]/const\[0\]/g' > _ptx2_l6jDSF
GPGPU-Sim PTX: generating ptxinfo using "$CUDA_INSTALL_PATH/bin/ptxas --gpu-name=sm_20 -v _ptx2_l6jDSF --output-file  /dev/null 2> _ptx_uGgMsyinfo"
GPGPU-Sim PTX: Kernel '_Z6renderPjP4Nodejjff' : regs=45, lmem=4, smem=0, cmem=180
GPGPU-Sim PTX: removing ptxinfo using "rm -f _ptx_uGgMsy _ptx2_l6jDSF _ptx_uGgMsyinfo"
GPGPU-Sim PTX: loading globals with explicit initializers... 
GPGPU-Sim PTX: finished loading globals (0 bytes total).
GPGPU-Sim PTX: loading constants with explicit initializers...  done.
GPGPU-Sim PTX: __cudaRegisterVar: hostVar = 0x632880; deviceAddress = MView; deviceName = MView
GPGPU-Sim PTX: __cudaRegisterVar: Registering const memory space of 48 bytes
GPGPU-Sim PTX registering constant MView (48 bytes) to name mapping
GPGPU-Sim PTX: __cudaRegisterVar: hostVar = 0x6328c0; deviceAddress = cnode; deviceName = cnode
GPGPU-Sim PTX: __cudaRegisterVar: Registering const memory space of 160 bytes
GPGPU-Sim PTX registering constant cnode (160 bytes) to name mapping
GPGPU-Sim PTX: cudaMemcpyToSymbol: symbol = 0x6328c0
GPGPU-Sim PTX: starting gpgpu_ptx_sim_memcpy_symbol with hostVar 0x0x6328c0
GPGPU-Sim PTX: gpgpu_ptx_sim_memcpy_symbol: Found PTX symbol w/ hostVar=0x6328c0
GPGPU-Sim PTX: gpgpu_ptx_sim_memcpy_symbol: copying const memory 160 bytes  to  symbol cnode+0 @0x100 ...
GPGPU-Sim PTX: cudaMemcpyToSymbol: symbol = 0x632880
GPGPU-Sim PTX: starting gpgpu_ptx_sim_memcpy_symbol with hostVar 0x0x632880
GPGPU-Sim PTX: gpgpu_ptx_sim_memcpy_symbol: Found PTX symbol w/ hostVar=0x632880
GPGPU-Sim PTX: gpgpu_ptx_sim_memcpy_symbol: copying const memory 48 bytes  to  symbol MView+0 @0x200 ...

GPGPU-Sim PTX: cudaLaunch for 0x0x40d033 (mode=performance simulation) on stream 0
GPGPU-Sim PTX: pushing kernel '_Z6renderPjP4Nodejjff' to stream 0, gridDim= (16,32,1) blockDim = (16,8,1) 
kernel '_Z6renderPjP4Nodejjff' transfer to GPU hardware scheduler
GPGPU-Sim uArch: Shader 1 bind to kernel 1 '_Z6renderPjP4Nodejjff'
GPGPU-Sim uArch: CTA/core = 5, limited by: regs
GPGPU-Sim uArch: core:  1, cta: 0 initialized @(1,0)
GPGPU-Sim uArch: Shader 2 bind to kernel 1 '_Z6renderPjP4Nodejjff'
GPGPU-Sim uArch: core:  2, cta: 0 initialized @(1,0)
GPGPU-Sim uArch: Shader 3 bind to kernel 1 '_Z6renderPjP4Nodejjff'
GPGPU-Sim uArch: core:  3, cta: 0 initialized @(1,0)
GPGPU-Sim uArch: Shader 4 bind to kernel 1 '_Z6renderPjP4Nodejjff'
GPGPU-Sim uArch: core:  4, cta: 0 initialized @(1,0)
GPGPU-Sim uArch: Shader 5 bind to kernel 1 '_Z6renderPjP4Nodejjff'
GPGPU-Sim uArch: core:  5, cta: 0 initialized @(1,0)
GPGPU-Sim uArch: Shader 6 bind to kernel 1 '_Z6renderPjP4Nodejjff'
GPGPU-Sim uArch: core:  6, cta: 0 initialized @(1,0)
GPGPU-Sim uArch: Shader 7 bind to kernel 1 '_Z6renderPjP4Nodejjff'
GPGPU-Sim uArch: core:  7, cta: 0 initialized @(1,0)
GPGPU-Sim uArch: Shader 8 bind to kernel 1 '_Z6renderPjP4Nodejjff'
GPGPU-Sim uArch: core:  8, cta: 0 initialized @(1,0)
GPGPU-Sim uArch: Shader 9 bind to kernel 1 '_Z6renderPjP4Nodejjff'
GPGPU-Sim uArch: core:  9, cta: 0 initialized @(1,0)
GPGPU-Sim uArch: Shader 10 bind to kernel 1 '_Z6renderPjP4Nodejjff'
GPGPU-Sim uArch: core: 10, cta: 0 initialized @(1,0)
GPGPU-Sim uArch: Shader 11 bind to kernel 1 '_Z6renderPjP4Nodejjff'
GPGPU-Sim uArch: core: 11, cta: 0 initialized @(1,0)
GPGPU-Sim uArch: Shader 12 bind to kernel 1 '_Z6renderPjP4Nodejjff'
GPGPU-Sim uArch: core: 12, cta: 0 initialized @(1,0)
GPGPU-Sim uArch: Shader 13 bind to kernel 1 '_Z6renderPjP4Nodejjff'
GPGPU-Sim uArch: core: 13, cta: 0 initialized @(1,0)
GPGPU-Sim uArch: Shader 14 bind to kernel 1 '_Z6renderPjP4Nodejjff'
GPGPU-Sim uArch: core: 14, cta: 0 initialized @(1,0)
GPGPU-Sim uArch: Shader 0 bind to kernel 1 '_Z6renderPjP4Nodejjff'
GPGPU-Sim uArch: core:  0, cta: 0 initialized @(1,0)
GPGPU-Sim uArch: core:  1, cta: 1 initialized @(2,0)
GPGPU-Sim uArch: core:  2, cta: 1 initialized @(2,0)
GPGPU-Sim uArch: core:  3, cta: 1 initialized @(2,0)
GPGPU-Sim uArch: core:  4, cta: 1 initialized @(2,0)
GPGPU-Sim uArch: core:  5, cta: 1 initialized @(2,0)
GPGPU-Sim uArch: core:  6, cta: 1 initialized @(2,0)
GPGPU-Sim uArch: core:  7, cta: 1 initialized @(2,0)
GPGPU-Sim uArch: core:  8, cta: 1 initialized @(2,0)
GPGPU-Sim uArch: core:  9, cta: 1 initialized @(2,0)
GPGPU-Sim uArch: core: 10, cta: 1 initialized @(2,0)
GPGPU-Sim uArch: core: 11, cta: 1 initialized @(2,0)
GPGPU-Sim uArch: core: 12, cta: 1 initialized @(2,0)
GPGPU-Sim uArch: core: 13, cta: 1 initialized @(2,0)
GPGPU-Sim uArch: core: 14, cta: 1 initialized @(2,0)
GPGPU-Sim uArch: core:  0, cta: 1 initialized @(2,0)
GPGPU-Sim uArch: core:  1, cta: 2 initialized @(3,0)
GPGPU-Sim uArch: core:  2, cta: 2 initialized @(3,0)
GPGPU-Sim uArch: core:  3, cta: 2 initialized @(3,0)
GPGPU-Sim uArch: core:  4, cta: 2 initialized @(3,0)
GPGPU-Sim uArch: core:  5, cta: 2 initialized @(3,0)
GPGPU-Sim uArch: core:  6, cta: 2 initialized @(3,0)
GPGPU-Sim uArch: core:  7, cta: 2 initialized @(3,0)
GPGPU-Sim uArch: core:  8, cta: 2 initialized @(3,0)
GPGPU-Sim uArch: core:  9, cta: 2 initialized @(3,0)
GPGPU-Sim uArch: core: 10, cta: 2 initialized @(3,0)
GPGPU-Sim uArch: core: 11, cta: 2 initialized @(3,0)
GPGPU-Sim uArch: core: 12, cta: 2 initialized @(3,0)
GPGPU-Sim uArch: core: 13, cta: 2 initialized @(3,0)
GPGPU-Sim uArch: core: 14, cta: 2 initialized @(3,0)
GPGPU-Sim uArch: core:  0, cta: 2 initialized @(3,0)
GPGPU-Sim uArch: core:  1, cta: 3 initialized @(4,0)
GPGPU-Sim uArch: core:  2, cta: 3 initialized @(4,0)
GPGPU-Sim uArch: core:  3, cta: 3 initialized @(4,0)
GPGPU-Sim uArch: core:  4, cta: 3 initialized @(4,0)
GPGPU-Sim uArch: core:  5, cta: 3 initialized @(4,0)
GPGPU-Sim uArch: core:  6, cta: 3 initialized @(4,0)
GPGPU-Sim uArch: core:  7, cta: 3 initialized @(4,0)
GPGPU-Sim uArch: core:  8, cta: 3 initialized @(4,0)
GPGPU-Sim uArch: core:  9, cta: 3 initialized @(4,0)
GPGPU-Sim uArch: core: 10, cta: 3 initialized @(4,0)
GPGPU-Sim uArch: core: 11, cta: 3 initialized @(4,0)
GPGPU-Sim uArch: core: 12, cta: 3 initialized @(4,0)
GPGPU-Sim uArch: core: 13, cta: 3 initialized @(4,0)
GPGPU-Sim uArch: core: 14, cta: 3 initialized @(4,0)
GPGPU-Sim uArch: core:  0, cta: 3 initialized @(4,0)
GPGPU-Sim uArch: core:  1, cta: 4 initialized @(5,0)
GPGPU-Sim uArch: core:  2, cta: 4 initialized @(5,0)
GPGPU-Sim uArch: core:  3, cta: 4 initialized @(5,0)
GPGPU-Sim uArch: core:  4, cta: 4 initialized @(5,0)
GPGPU-Sim uArch: core:  5, cta: 4 initialized @(5,0)
GPGPU-Sim uArch: core:  6, cta: 4 initialized @(5,0)
GPGPU-Sim uArch: core:  7, cta: 4 initialized @(5,0)
GPGPU-Sim uArch: core:  8, cta: 4 initialized @(5,0)
GPGPU-Sim uArch: core:  9, cta: 4 initialized @(5,0)
GPGPU-Sim uArch: core: 10, cta: 4 initialized @(5,0)
GPGPU-Sim uArch: core: 11, cta: 4 initialized @(5,0)
GPGPU-Sim uArch: core: 12, cta: 4 initialized @(5,0)
GPGPU-Sim uArch: core: 13, cta: 4 initialized @(5,0)
GPGPU-Sim uArch: core: 14, cta: 4 initialized @(5,0)
GPGPU-Sim uArch: core:  0, cta: 4 initialized @(5,0)
GPGPU-Sim uArch: cycles simulated: 500  inst.: 35168 (ipc=70.3) sim_rate=35168 (inst/sec) elapsed = 0:0:00:01 / Wed May  1 12:43:19 2019
GPGPU-Sim uArch: cycles simulated: 2000  inst.: 61408 (ipc=30.7) sim_rate=30704 (inst/sec) elapsed = 0:0:00:02 / Wed May  1 12:43:20 2019
GPGPU-Sim uArch: cycles simulated: 5000  inst.: 83808 (ipc=16.8) sim_rate=27936 (inst/sec) elapsed = 0:0:00:03 / Wed May  1 12:43:21 2019
GPGPU-Sim PTX: 100000 instructions simulated : ctaid=(4,0,0) tid=(15,1,0)
GPGPU-Sim uArch: cycles simulated: 8000  inst.: 136800 (ipc=17.1) sim_rate=34200 (inst/sec) elapsed = 0:0:00:04 / Wed May  1 12:43:22 2019
GPGPU-Sim PTX: 200000 instructions simulated : ctaid=(8,2,0) tid=(15,5,0)
GPGPU-Sim uArch: cycles simulated: 11000  inst.: 206528 (ipc=18.8) sim_rate=41305 (inst/sec) elapsed = 0:0:00:05 / Wed May  1 12:43:23 2019
GPGPU-Sim uArch: cycles simulated: 14000  inst.: 294496 (ipc=21.0) sim_rate=49082 (inst/sec) elapsed = 0:0:00:06 / Wed May  1 12:43:24 2019
GPGPU-Sim PTX: 300000 instructions simulated : ctaid=(4,0,0) tid=(15,3,0)
GPGPU-Sim uArch: cycles simulated: 16500  inst.: 392672 (ipc=23.8) sim_rate=56096 (inst/sec) elapsed = 0:0:00:07 / Wed May  1 12:43:25 2019
GPGPU-Sim PTX: 400000 instructions simulated : ctaid=(2,2,0) tid=(15,5,0)
GPGPU-Sim PTX: 500000 instructions simulated : ctaid=(3,3,0) tid=(15,1,0)
GPGPU-Sim uArch: cycles simulated: 19500  inst.: 567552 (ipc=29.1) sim_rate=70944 (inst/sec) elapsed = 0:0:00:08 / Wed May  1 12:43:26 2019
GPGPU-Sim PTX: 600000 instructions simulated : ctaid=(2,4,0) tid=(15,5,0)
GPGPU-Sim PTX: 700000 instructions simulated : ctaid=(10,1,0) tid=(15,3,0)
GPGPU-Sim uArch: cycles simulated: 22000  inst.: 693632 (ipc=31.5) sim_rate=77070 (inst/sec) elapsed = 0:0:00:09 / Wed May  1 12:43:27 2019
GPGPU-Sim PTX: 800000 instructions simulated : ctaid=(6,1,0) tid=(15,5,0)
GPGPU-Sim uArch: cycles simulated: 24500  inst.: 877728 (ipc=35.8) sim_rate=87772 (inst/sec) elapsed = 0:0:00:10 / Wed May  1 12:43:28 2019
GPGPU-Sim PTX: 900000 instructions simulated : ctaid=(14,0,0) tid=(15,7,0)
GPGPU-Sim PTX: 1000000 instructions simulated : ctaid=(11,1,0) tid=(15,7,0)
GPGPU-Sim PTX: 1100000 instructions simulated : ctaid=(11,3,0) tid=(15,1,0)
GPGPU-Sim uArch: cycles simulated: 27000  inst.: 1152992 (ipc=42.7) sim_rate=104817 (inst/sec) elapsed = 0:0:00:11 / Wed May  1 12:43:29 2019
GPGPU-Sim PTX: 1200000 instructions simulated : ctaid=(5,2,0) tid=(15,5,0)
GPGPU-Sim PTX: 1300000 instructions simulated : ctaid=(9,2,0) tid=(15,3,0)
GPGPU-Sim PTX: 1400000 instructions simulated : ctaid=(15,1,0) tid=(15,7,0)
GPGPU-Sim PTX: 1500000 instructions simulated : ctaid=(13,1,0) tid=(15,1,0)
GPGPU-Sim PTX: 1600000 instructions simulated : ctaid=(2,0,0) tid=(15,5,0)
GPGPU-Sim PTX: 1700000 instructions simulated : ctaid=(15,0,0) tid=(15,1,0)
GPGPU-Sim uArch: cycles simulated: 29000  inst.: 1701152 (ipc=58.7) sim_rate=141762 (inst/sec) elapsed = 0:0:00:12 / Wed May  1 12:43:30 2019
GPGPU-Sim PTX: 1800000 instructions simulated : ctaid=(15,1,0) tid=(15,3,0)
GPGPU-Sim PTX: 1900000 instructions simulated : ctaid=(6,2,0) tid=(15,7,0)
GPGPU-Sim uArch: cycles simulated: 31000  inst.: 1916864 (ipc=61.8) sim_rate=147451 (inst/sec) elapsed = 0:0:00:13 / Wed May  1 12:43:31 2019
GPGPU-Sim PTX: 2000000 instructions simulated : ctaid=(7,2,0) tid=(15,7,0)
GPGPU-Sim PTX: 2100000 instructions simulated : ctaid=(9,1,0) tid=(15,1,0)
GPGPU-Sim PTX: 2200000 instructions simulated : ctaid=(1,3,0) tid=(15,1,0)
GPGPU-Sim PTX: 2300000 instructions simulated : ctaid=(14,3,0) tid=(15,7,0)
GPGPU-Sim PTX: 2400000 instructions simulated : ctaid=(15,3,0) tid=(15,3,0)
GPGPU-Sim PTX: 2500000 instructions simulated : ctaid=(0,0,0) tid=(15,1,0)
GPGPU-Sim PTX: 2600000 instructions simulated : ctaid=(15,1,0) tid=(15,1,0)
GPGPU-Sim PTX: 2700000 instructions simulated : ctaid=(12,3,0) tid=(15,1,0)
GPGPU-Sim PTX: 2800000 instructions simulated : ctaid=(4,2,0) tid=(15,1,0)
GPGPU-Sim uArch: cycles simulated: 32500  inst.: 2825024 (ipc=86.9) sim_rate=201787 (inst/sec) elapsed = 0:0:00:14 / Wed May  1 12:43:32 2019
GPGPU-Sim PTX: 2900000 instructions simulated : ctaid=(3,3,0) tid=(15,7,0)
GPGPU-Sim PTX: 3000000 instructions simulated : ctaid=(8,3,0) tid=(15,1,0)
GPGPU-Sim PTX: 3100000 instructions simulated : ctaid=(9,3,0) tid=(15,5,0)
GPGPU-Sim PTX: 3200000 instructions simulated : ctaid=(15,3,0) tid=(15,3,0)
GPGPU-Sim PTX: 3300000 instructions simulated : ctaid=(11,1,0) tid=(15,1,0)
GPGPU-Sim PTX: 3400000 instructions simulated : ctaid=(15,3,0) tid=(15,7,0)
GPGPU-Sim uArch: cycles simulated: 33500  inst.: 3360128 (ipc=100.3) sim_rate=224008 (inst/sec) elapsed = 0:0:00:15 / Wed May  1 12:43:33 2019
GPGPU-Sim PTX: 3500000 instructions simulated : ctaid=(2,0,0) tid=(15,5,0)
GPGPU-Sim PTX: 3600000 instructions simulated : ctaid=(15,0,0) tid=(15,5,0)
GPGPU-Sim PTX: 3700000 instructions simulated : ctaid=(0,3,0) tid=(15,1,0)
GPGPU-Sim PTX: 3800000 instructions simulated : ctaid=(6,4,0) tid=(15,1,0)
GPGPU-Sim uArch: cycles simulated: 34500  inst.: 3750464 (ipc=108.7) sim_rate=234404 (inst/sec) elapsed = 0:0:00:16 / Wed May  1 12:43:34 2019
GPGPU-Sim PTX: 3900000 instructions simulated : ctaid=(0,2,0) tid=(15,3,0)
GPGPU-Sim PTX: 4000000 instructions simulated : ctaid=(6,4,0) tid=(15,7,0)
GPGPU-Sim PTX: 4100000 instructions simulated : ctaid=(8,1,0) tid=(15,3,0)
GPGPU-Sim PTX: 4200000 instructions simulated : ctaid=(0,0,0) tid=(15,7,0)
GPGPU-Sim PTX: 4300000 instructions simulated : ctaid=(14,0,0) tid=(15,7,0)
GPGPU-Sim PTX: 4400000 instructions simulated : ctaid=(1,1,0) tid=(15,1,0)
GPGPU-Sim uArch: cycles simulated: 37000  inst.: 4336832 (ipc=117.2) sim_rate=255107 (inst/sec) elapsed = 0:0:00:17 / Wed May  1 12:43:35 2019
GPGPU-Sim PTX: 4500000 instructions simulated : ctaid=(5,4,0) tid=(15,3,0)
GPGPU-Sim PTX: 4600000 instructions simulated : ctaid=(10,3,0) tid=(10,3,0)
GPGPU-Sim PTX: 4700000 instructions simulated : ctaid=(3,3,0) tid=(9,6,0)
GPGPU-Sim PTX: 4800000 instructions simulated : ctaid=(2,1,0) tid=(15,6,0)
GPGPU-Sim PTX: 4900000 instructions simulated : ctaid=(13,0,0) tid=(15,4,0)
GPGPU-Sim PTX: 5000000 instructions simulated : ctaid=(2,1,0) tid=(15,2,0)
GPGPU-Sim uArch: cycles simulated: 38000  inst.: 4938960 (ipc=130.0) sim_rate=274386 (inst/sec) elapsed = 0:0:00:18 / Wed May  1 12:43:36 2019
GPGPU-Sim PTX: 5100000 instructions simulated : ctaid=(15,1,0) tid=(15,6,0)
GPGPU-Sim PTX: 5200000 instructions simulated : ctaid=(9,1,0) tid=(15,2,0)
GPGPU-Sim PTX: 5300000 instructions simulated : ctaid=(9,2,0) tid=(15,6,0)
GPGPU-Sim PTX: 5400000 instructions simulated : ctaid=(7,1,0) tid=(15,6,0)
GPGPU-Sim PTX: 5500000 instructions simulated : ctaid=(4,0,0) tid=(3,3,0)
GPGPU-Sim PTX: 5600000 instructions simulated : ctaid=(9,3,0) tid=(2,4,0)
GPGPU-Sim PTX: 5700000 instructions simulated : ctaid=(13,0,0) tid=(5,4,0)
GPGPU-Sim PTX: 5800000 instructions simulated : ctaid=(5,0,0) tid=(13,6,0)
GPGPU-Sim uArch: cycles simulated: 39000  inst.: 5680790 (ipc=145.7) sim_rate=298988 (inst/sec) elapsed = 0:0:00:19 / Wed May  1 12:43:37 2019
GPGPU-Sim PTX: 5900000 instructions simulated : ctaid=(1,4,0) tid=(15,6,0)
GPGPU-Sim PTX: 6000000 instructions simulated : ctaid=(1,1,0) tid=(5,5,0)
GPGPU-Sim PTX: 6100000 instructions simulated : ctaid=(13,1,0) tid=(11,7,0)
GPGPU-Sim PTX: 6200000 instructions simulated : ctaid=(5,4,0) tid=(11,5,0)
GPGPU-Sim PTX: 6300000 instructions simulated : ctaid=(11,3,0) tid=(11,7,0)
GPGPU-Sim uArch: cycles simulated: 40500  inst.: 6144100 (ipc=151.7) sim_rate=307205 (inst/sec) elapsed = 0:0:00:20 / Wed May  1 12:43:38 2019
GPGPU-Sim PTX: 6400000 instructions simulated : ctaid=(1,4,0) tid=(11,7,0)
GPGPU-Sim PTX: 6500000 instructions simulated : ctaid=(8,2,0) tid=(2,0,0)
GPGPU-Sim PTX: 6600000 instructions simulated : ctaid=(3,3,0) tid=(11,1,0)
GPGPU-Sim PTX: 6700000 instructions simulated : ctaid=(13,0,0) tid=(11,7,0)
GPGPU-Sim PTX: 6800000 instructions simulated : ctaid=(9,1,0) tid=(11,3,0)
GPGPU-Sim uArch: cycles simulated: 42500  inst.: 6658116 (ipc=156.7) sim_rate=317053 (inst/sec) elapsed = 0:0:00:21 / Wed May  1 12:43:39 2019
GPGPU-Sim PTX: 6900000 instructions simulated : ctaid=(4,0,0) tid=(11,7,0)
GPGPU-Sim PTX: 7000000 instructions simulated : ctaid=(0,0,0) tid=(11,1,0)
GPGPU-Sim PTX: 7100000 instructions simulated : ctaid=(1,2,0) tid=(11,7,0)
GPGPU-Sim PTX: 7200000 instructions simulated : ctaid=(5,3,0) tid=(11,5,0)
GPGPU-Sim uArch: cycles simulated: 43500  inst.: 7074148 (ipc=162.6) sim_rate=321552 (inst/sec) elapsed = 0:0:00:22 / Wed May  1 12:43:40 2019
GPGPU-Sim PTX: 7300000 instructions simulated : ctaid=(13,2,0) tid=(11,7,0)
GPGPU-Sim PTX: 7400000 instructions simulated : ctaid=(6,3,0) tid=(11,7,0)
GPGPU-Sim PTX: 7500000 instructions simulated : ctaid=(12,0,0) tid=(11,3,0)
GPGPU-Sim PTX: 7600000 instructions simulated : ctaid=(4,0,0) tid=(11,7,0)
GPGPU-Sim uArch: cycles simulated: 45000  inst.: 7488612 (ipc=166.4) sim_rate=325591 (inst/sec) elapsed = 0:0:00:23 / Wed May  1 12:43:41 2019
GPGPU-Sim PTX: 7700000 instructions simulated : ctaid=(9,1,0) tid=(11,7,0)
GPGPU-Sim PTX: 7800000 instructions simulated : ctaid=(15,1,0) tid=(11,7,0)
GPGPU-Sim PTX: 7900000 instructions simulated : ctaid=(0,1,0) tid=(11,5,0)
GPGPU-Sim PTX: 8000000 instructions simulated : ctaid=(12,3,0) tid=(11,3,0)
GPGPU-Sim PTX: 8100000 instructions simulated : ctaid=(4,1,0) tid=(11,7,0)
GPGPU-Sim PTX: 8200000 instructions simulated : ctaid=(3,1,0) tid=(11,3,0)
GPGPU-Sim uArch: cycles simulated: 46500  inst.: 8067876 (ipc=173.5) sim_rate=336161 (inst/sec) elapsed = 0:0:00:24 / Wed May  1 12:43:42 2019
GPGPU-Sim PTX: 8300000 instructions simulated : ctaid=(10,4,0) tid=(11,3,0)
GPGPU-Sim PTX: 8400000 instructions simulated : ctaid=(13,0,0) tid=(11,7,0)
GPGPU-Sim PTX: 8500000 instructions simulated : ctaid=(1,1,0) tid=(11,7,0)
GPGPU-Sim PTX: 8600000 instructions simulated : ctaid=(9,0,0) tid=(6,6,0)
GPGPU-Sim PTX: 8700000 instructions simulated : ctaid=(10,2,0) tid=(0,6,0)
GPGPU-Sim PTX: 8800000 instructions simulated : ctaid=(12,3,0) tid=(7,0,0)
GPGPU-Sim PTX: 8900000 instructions simulated : ctaid=(1,0,0) tid=(11,5,0)
GPGPU-Sim PTX: 9000000 instructions simulated : ctaid=(5,0,0) tid=(11,1,0)
GPGPU-Sim uArch: cycles simulated: 47500  inst.: 8788196 (ipc=185.0) sim_rate=351527 (inst/sec) elapsed = 0:0:00:25 / Wed May  1 12:43:43 2019
GPGPU-Sim PTX: 9100000 instructions simulated : ctaid=(7,4,0) tid=(9,3,0)
GPGPU-Sim PTX: 9200000 instructions simulated : ctaid=(1,1,0) tid=(7,5,0)
GPGPU-Sim PTX: 9300000 instructions simulated : ctaid=(11,2,0) tid=(3,7,0)
GPGPU-Sim PTX: 9400000 instructions simulated : ctaid=(7,1,0) tid=(3,3,0)
GPGPU-Sim PTX: 9500000 instructions simulated : ctaid=(0,4,0) tid=(4,7,0)
GPGPU-Sim PTX: 9600000 instructions simulated : ctaid=(12,0,0) tid=(9,7,0)
GPGPU-Sim PTX: 9700000 instructions simulated : ctaid=(6,3,0) tid=(11,0,0)
GPGPU-Sim PTX: 9800000 instructions simulated : ctaid=(10,4,0) tid=(1,7,0)
GPGPU-Sim uArch: cycles simulated: 48500  inst.: 9570241 (ipc=197.3) sim_rate=368086 (inst/sec) elapsed = 0:0:00:26 / Wed May  1 12:43:44 2019
GPGPU-Sim PTX: 9900000 instructions simulated : ctaid=(6,4,0) tid=(10,3,0)
GPGPU-Sim PTX: 10000000 instructions simulated : ctaid=(7,2,0) tid=(11,2,0)
GPGPU-Sim PTX: 10100000 instructions simulated : ctaid=(6,2,0) tid=(4,0,0)
GPGPU-Sim PTX: 10200000 instructions simulated : ctaid=(0,0,0) tid=(1,1,0)
GPGPU-Sim uArch: cycles simulated: 50000  inst.: 9986656 (ipc=199.7) sim_rate=369876 (inst/sec) elapsed = 0:0:00:27 / Wed May  1 12:43:45 2019
GPGPU-Sim PTX: 10300000 instructions simulated : ctaid=(6,2,0) tid=(7,3,0)
GPGPU-Sim PTX: 10400000 instructions simulated : ctaid=(4,1,0) tid=(13,3,0)
GPGPU-Sim uArch: Shader 14 finished CTA #0 (50410,0), 4 CTAs running
GPGPU-Sim uArch: core: 14, cta: 0 initialized @(50411,0)
GPGPU-Sim uArch: Shader 8 finished CTA #2 (50429,0), 4 CTAs running
GPGPU-Sim uArch: core:  8, cta: 2 initialized @(50430,0)
GPGPU-Sim uArch: Shader 8 finished CTA #3 (50444,0), 4 CTAs running
GPGPU-Sim uArch: core:  8, cta: 3 initialized @(50445,0)
GPGPU-Sim uArch: Shader 8 finished CTA #4 (50514,0), 4 CTAs running
GPGPU-Sim uArch: core:  8, cta: 4 initialized @(50515,0)
GPGPU-Sim uArch: Shader 1 finished CTA #0 (50524,0), 4 CTAs running
GPGPU-Sim uArch: core:  1, cta: 0 initialized @(50525,0)
GPGPU-Sim uArch: Shader 0 finished CTA #0 (50540,0), 4 CTAs running
GPGPU-Sim uArch: Shader 2 finished CTA #0 (50540,0), 4 CTAs running
GPGPU-Sim uArch: core:  2, cta: 0 initialized @(50541,0)
GPGPU-Sim uArch: core:  0, cta: 0 initialized @(50541,0)
GPGPU-Sim uArch: Shader 6 finished CTA #2 (50542,0), 4 CTAs running
GPGPU-Sim uArch: core:  6, cta: 2 initialized @(50543,0)
GPGPU-Sim uArch: Shader 0 finished CTA #1 (50548,0), 4 CTAs running
GPGPU-Sim uArch: core:  0, cta: 1 initialized @(50549,0)
GPGPU-Sim uArch: Shader 9 finished CTA #3 (50558,0), 4 CTAs running
GPGPU-Sim uArch: core:  9, cta: 3 initialized @(50559,0)
GPGPU-Sim uArch: Shader 0 finished CTA #2 (50560,0), 4 CTAs running
GPGPU-Sim uArch: core:  0, cta: 2 initialized @(50561,0)
GPGPU-Sim uArch: Shader 2 finished CTA #1 (50574,0), 4 CTAs running
GPGPU-Sim uArch: core:  2, cta: 1 initialized @(50575,0)
GPGPU-Sim uArch: Shader 9 finished CTA #4 (50582,0), 4 CTAs running
GPGPU-Sim uArch: core:  9, cta: 4 initialized @(50583,0)
GPGPU-Sim uArch: Shader 1 finished CTA #1 (50588,0), 4 CTAs running
GPGPU-Sim uArch: core:  1, cta: 1 initialized @(50589,0)
GPGPU-Sim uArch: Shader 2 finished CTA #3 (50596,0), 4 CTAs running
GPGPU-Sim uArch: core:  2, cta: 3 initialized @(50597,0)
GPGPU-Sim uArch: Shader 1 finished CTA #2 (50610,0), 4 CTAs running
GPGPU-Sim uArch: core:  1, cta: 2 initialized @(50611,0)
GPGPU-Sim uArch: Shader 2 finished CTA #2 (50614,0), 4 CTAs running
GPGPU-Sim uArch: core:  2, cta: 2 initialized @(50615,0)
GPGPU-Sim uArch: Shader 2 finished CTA #4 (50630,0), 4 CTAs running
GPGPU-Sim uArch: core:  2, cta: 4 initialized @(50631,0)
GPGPU-Sim uArch: Shader 3 finished CTA #0 (50632,0), 4 CTAs running
GPGPU-Sim uArch: core:  3, cta: 0 initialized @(50633,0)
GPGPU-Sim uArch: Shader 4 finished CTA #1 (50636,0), 4 CTAs running
GPGPU-Sim uArch: core:  4, cta: 1 initialized @(50637,0)
GPGPU-Sim uArch: Shader 6 finished CTA #4 (50645,0), 4 CTAs running
GPGPU-Sim uArch: core:  6, cta: 4 initialized @(50646,0)
GPGPU-Sim uArch: Shader 5 finished CTA #2 (50657,0), 4 CTAs running
GPGPU-Sim uArch: core:  5, cta: 2 initialized @(50658,0)
GPGPU-Sim uArch: Shader 4 finished CTA #2 (50661,0), 4 CTAs running
GPGPU-Sim uArch: core:  4, cta: 2 initialized @(50662,0)
GPGPU-Sim uArch: Shader 6 finished CTA #3 (50664,0), 4 CTAs running
GPGPU-Sim uArch: core:  6, cta: 3 initialized @(50665,0)
GPGPU-Sim uArch: Shader 3 finished CTA #1 (50698,0), 4 CTAs running
GPGPU-Sim uArch: core:  3, cta: 1 initialized @(50699,0)
GPGPU-Sim uArch: Shader 0 finished CTA #3 (50699,0), 4 CTAs running
GPGPU-Sim uArch: core:  0, cta: 3 initialized @(50700,0)
GPGPU-Sim uArch: Shader 4 finished CTA #3 (50710,0), 4 CTAs running
GPGPU-Sim uArch: core:  4, cta: 3 initialized @(50711,0)
GPGPU-Sim PTX: 10500000 instructions simulated : ctaid=(0,5,0) tid=(3,3,0)
GPGPU-Sim uArch: Shader 5 finished CTA #3 (50722,0), 4 CTAs running
GPGPU-Sim uArch: core:  5, cta: 3 initialized @(50723,0)
GPGPU-Sim uArch: Shader 7 finished CTA #3 (50726,0), 4 CTAs running
GPGPU-Sim uArch: core:  7, cta: 3 initialized @(50727,0)
GPGPU-Sim uArch: Shader 4 finished CTA #4 (50727,0), 4 CTAs running
GPGPU-Sim uArch: core:  4, cta: 4 initialized @(50728,0)
GPGPU-Sim uArch: Shader 1 finished CTA #4 (50728,0), 4 CTAs running
GPGPU-Sim uArch: core:  1, cta: 4 initialized @(50729,0)
GPGPU-Sim uArch: Shader 5 finished CTA #4 (50734,0), 4 CTAs running
GPGPU-Sim uArch: core:  5, cta: 4 initialized @(50735,0)
GPGPU-Sim uArch: Shader 7 finished CTA #4 (50738,0), 4 CTAs running
GPGPU-Sim uArch: core:  7, cta: 4 initialized @(50739,0)
GPGPU-Sim uArch: Shader 0 finished CTA #4 (50744,0), 4 CTAs running
GPGPU-Sim uArch: core:  0, cta: 4 initialized @(50745,0)
GPGPU-Sim uArch: Shader 1 finished CTA #3 (50754,0), 4 CTAs running
GPGPU-Sim uArch: Shader 3 finished CTA #2 (50754,0), 4 CTAs running
GPGPU-Sim uArch: core:  1, cta: 3 initialized @(50755,0)
GPGPU-Sim uArch: core:  3, cta: 2 initialized @(50755,0)
GPGPU-Sim uArch: Shader 3 finished CTA #4 (50762,0), 4 CTAs running
GPGPU-Sim uArch: core:  3, cta: 4 initialized @(50763,0)
GPGPU-Sim uArch: Shader 3 finished CTA #3 (50849,0), 4 CTAs running
GPGPU-Sim uArch: core:  3, cta: 3 initialized @(50850,0)
GPGPU-Sim uArch: Shader 10 finished CTA #4 (50910,0), 4 CTAs running
GPGPU-Sim uArch: core: 10, cta: 4 initialized @(50911,0)
GPGPU-Sim uArch: cycles simulated: 51000  inst.: 10308079 (ipc=202.1) sim_rate=368145 (inst/sec) elapsed = 0:0:00:28 / Wed May  1 12:43:46 2019
GPGPU-Sim PTX: 10600000 instructions simulated : ctaid=(7,4,0) tid=(9,0,0)
GPGPU-Sim PTX: 10700000 instructions simulated : ctaid=(3,0,0) tid=(6,0,0)
GPGPU-Sim PTX: 10800000 instructions simulated : ctaid=(9,4,0) tid=(3,0,0)
GPGPU-Sim PTX: 10900000 instructions simulated : ctaid=(7,1,0) tid=(5,7,0)
GPGPU-Sim PTX: 11000000 instructions simulated : ctaid=(12,0,0) tid=(2,3,0)
GPGPU-Sim PTX: 11100000 instructions simulated : ctaid=(7,5,0) tid=(6,3,0)
GPGPU-Sim uArch: cycles simulated: 52500  inst.: 10862214 (ipc=206.9) sim_rate=374559 (inst/sec) elapsed = 0:0:00:29 / Wed May  1 12:43:47 2019
GPGPU-Sim PTX: 11200000 instructions simulated : ctaid=(2,5,0) tid=(5,7,0)
GPGPU-Sim PTX: 11300000 instructions simulated : ctaid=(6,2,0) tid=(8,5,0)
GPGPU-Sim PTX: 11400000 instructions simulated : ctaid=(3,0,0) tid=(11,0,0)
GPGPU-Sim PTX: 11500000 instructions simulated : ctaid=(12,5,0) tid=(11,0,0)
GPGPU-Sim PTX: 11600000 instructions simulated : ctaid=(12,6,0) tid=(1,2,0)
GPGPU-Sim uArch: cycles simulated: 53500  inst.: 11361421 (ipc=212.4) sim_rate=378714 (inst/sec) elapsed = 0:0:00:30 / Wed May  1 12:43:48 2019
GPGPU-Sim PTX: 11700000 instructions simulated : ctaid=(9,3,0) tid=(4,0,0)
GPGPU-Sim PTX: 11800000 instructions simulated : ctaid=(9,2,0) tid=(12,7,0)
GPGPU-Sim PTX: 11900000 instructions simulated : ctaid=(2,5,0) tid=(14,7,0)
GPGPU-Sim PTX: 12000000 instructions simulated : ctaid=(7,4,0) tid=(0,6,0)
GPGPU-Sim PTX: 12100000 instructions simulated : ctaid=(15,4,0) tid=(13,4,0)
GPGPU-Sim PTX: 12200000 instructions simulated : ctaid=(3,5,0) tid=(6,7,0)
GPGPU-Sim uArch: cycles simulated: 54500  inst.: 11955325 (ipc=219.4) sim_rate=385655 (inst/sec) elapsed = 0:0:00:31 / Wed May  1 12:43:49 2019
GPGPU-Sim PTX: 12300000 instructions simulated : ctaid=(3,6,0) tid=(10,6,0)
GPGPU-Sim PTX: 12400000 instructions simulated : ctaid=(1,6,0) tid=(8,7,0)
GPGPU-Sim PTX: 12500000 instructions simulated : ctaid=(8,5,0) tid=(6,2,0)
GPGPU-Sim PTX: 12600000 instructions simulated : ctaid=(5,1,0) tid=(6,0,0)
GPGPU-Sim PTX: 12700000 instructions simulated : ctaid=(6,2,0) tid=(11,3,0)
GPGPU-Sim PTX: 12800000 instructions simulated : ctaid=(5,1,0) tid=(2,3,0)
GPGPU-Sim PTX: 12900000 instructions simulated : ctaid=(15,6,0) tid=(8,4,0)
GPGPU-Sim uArch: cycles simulated: 55500  inst.: 12572326 (ipc=226.5) sim_rate=392885 (inst/sec) elapsed = 0:0:00:32 / Wed May  1 12:43:50 2019
GPGPU-Sim uArch: Shader 7 finished CTA #2 (55598,0), 4 CTAs running
GPGPU-Sim uArch: core:  7, cta: 2 initialized @(55599,0)
GPGPU-Sim uArch: Shader 14 finished CTA #2 (55629,0), 4 CTAs running
GPGPU-Sim uArch: core: 14, cta: 2 initialized @(55630,0)
GPGPU-Sim PTX: 13000000 instructions simulated : ctaid=(0,5,0) tid=(4,2,0)
GPGPU-Sim PTX: 13100000 instructions simulated : ctaid=(10,6,0) tid=(15,2,0)
GPGPU-Sim PTX: 13200000 instructions simulated : ctaid=(8,6,0) tid=(13,0,0)
GPGPU-Sim PTX: 13300000 instructions simulated : ctaid=(15,6,0) tid=(2,6,0)
GPGPU-Sim PTX: 13400000 instructions simulated : ctaid=(1,6,0) tid=(6,5,0)
GPGPU-Sim uArch: cycles simulated: 56500  inst.: 13118642 (ipc=232.2) sim_rate=397534 (inst/sec) elapsed = 0:0:00:33 / Wed May  1 12:43:51 2019
GPGPU-Sim PTX: 13500000 instructions simulated : ctaid=(15,4,0) tid=(10,4,0)
GPGPU-Sim PTX: 13600000 instructions simulated : ctaid=(13,6,0) tid=(14,5,0)
GPGPU-Sim PTX: 13700000 instructions simulated : ctaid=(1,5,0) tid=(5,5,0)
GPGPU-Sim PTX: 13800000 instructions simulated : ctaid=(6,3,0) tid=(12,4,0)
GPGPU-Sim PTX: 13900000 instructions simulated : ctaid=(11,6,0) tid=(6,1,0)
GPGPU-Sim PTX: 14000000 instructions simulated : ctaid=(7,6,0) tid=(11,4,0)
GPGPU-Sim uArch: cycles simulated: 57500  inst.: 13661790 (ipc=237.6) sim_rate=401817 (inst/sec) elapsed = 0:0:00:34 / Wed May  1 12:43:52 2019
GPGPU-Sim PTX: 14100000 instructions simulated : ctaid=(12,6,0) tid=(15,1,0)
GPGPU-Sim PTX: 14200000 instructions simulated : ctaid=(8,3,0) tid=(15,7,0)
GPGPU-Sim PTX: 14300000 instructions simulated : ctaid=(7,3,0) tid=(6,1,0)
GPGPU-Sim PTX: 14400000 instructions simulated : ctaid=(7,4,0) tid=(14,6,0)
GPGPU-Sim PTX: 14500000 instructions simulated : ctaid=(14,6,0) tid=(3,1,0)
GPGPU-Sim PTX: 14600000 instructions simulated : ctaid=(2,7,0) tid=(5,0,0)
GPGPU-Sim PTX: 14700000 instructions simulated : ctaid=(9,4,0) tid=(0,6,0)
GPGPU-Sim PTX: 14800000 instructions simulated : ctaid=(8,0,0) tid=(6,6,0)
GPGPU-Sim PTX: 14900000 instructions simulated : ctaid=(8,2,0) tid=(13,6,0)
GPGPU-Sim uArch: cycles simulated: 59000  inst.: 14514301 (ipc=246.0) sim_rate=414694 (inst/sec) elapsed = 0:0:00:35 / Wed May  1 12:43:53 2019
GPGPU-Sim PTX: 15000000 instructions simulated : ctaid=(1,5,0) tid=(15,4,0)
GPGPU-Sim PTX: 15100000 instructions simulated : ctaid=(13,5,0) tid=(14,7,0)
GPGPU-Sim PTX: 15200000 instructions simulated : ctaid=(8,3,0) tid=(4,0,0)
GPGPU-Sim PTX: 15300000 instructions simulated : ctaid=(12,6,0) tid=(1,0,0)
GPGPU-Sim PTX: 15400000 instructions simulated : ctaid=(6,4,0) tid=(12,0,0)
GPGPU-Sim uArch: cycles simulated: 60000  inst.: 15073783 (ipc=251.2) sim_rate=418716 (inst/sec) elapsed = 0:0:00:36 / Wed May  1 12:43:54 2019
GPGPU-Sim PTX: 15500000 instructions simulated : ctaid=(12,5,0) tid=(5,0,0)
GPGPU-Sim uArch: Shader 14 finished CTA #3 (60202,0), 4 CTAs running
GPGPU-Sim uArch: core: 14, cta: 3 initialized @(60203,0)
GPGPU-Sim PTX: 15600000 instructions simulated : ctaid=(9,2,0) tid=(7,2,0)
GPGPU-Sim PTX: 15700000 instructions simulated : ctaid=(14,4,0) tid=(2,1,0)
GPGPU-Sim PTX: 15800000 instructions simulated : ctaid=(15,5,0) tid=(5,2,0)
GPGPU-Sim PTX: 15900000 instructions simulated : ctaid=(6,5,0) tid=(10,2,0)
GPGPU-Sim uArch: cycles simulated: 61000  inst.: 15491812 (ipc=254.0) sim_rate=418697 (inst/sec) elapsed = 0:0:00:37 / Wed May  1 12:43:55 2019
GPGPU-Sim PTX: 16000000 instructions simulated : ctaid=(8,5,0) tid=(11,5,0)
GPGPU-Sim PTX: 16100000 instructions simulated : ctaid=(11,4,0) tid=(10,5,0)
GPGPU-Sim PTX: 16200000 instructions simulated : ctaid=(6,4,0) tid=(12,2,0)
GPGPU-Sim PTX: 16300000 instructions simulated : ctaid=(7,1,0) tid=(2,3,0)
GPGPU-Sim PTX: 16400000 instructions simulated : ctaid=(14,4,0) tid=(8,6,0)
GPGPU-Sim uArch: Shader 13 finished CTA #2 (62306,0), 4 CTAs running
GPGPU-Sim uArch: core: 13, cta: 2 initialized @(62307,0)
GPGPU-Sim PTX: 16500000 instructions simulated : ctaid=(15,6,0) tid=(2,4,0)
GPGPU-Sim uArch: cycles simulated: 62500  inst.: 16135397 (ipc=258.2) sim_rate=424615 (inst/sec) elapsed = 0:0:00:38 / Wed May  1 12:43:56 2019
GPGPU-Sim PTX: 16600000 instructions simulated : ctaid=(3,6,0) tid=(10,5,0)
GPGPU-Sim PTX: 16700000 instructions simulated : ctaid=(1,5,0) tid=(1,2,0)
GPGPU-Sim PTX: 16800000 instructions simulated : ctaid=(12,6,0) tid=(14,0,0)
GPGPU-Sim uArch: Shader 5 finished CTA #1 (63142,0), 4 CTAs running
GPGPU-Sim uArch: core:  5, cta: 1 initialized @(63143,0)
GPGPU-Sim PTX: 16900000 instructions simulated : ctaid=(6,2,0) tid=(12,7,0)
GPGPU-Sim PTX: 17000000 instructions simulated : ctaid=(11,4,0) tid=(3,2,0)
GPGPU-Sim uArch: cycles simulated: 63500  inst.: 16591353 (ipc=261.3) sim_rate=425419 (inst/sec) elapsed = 0:0:00:39 / Wed May  1 12:43:57 2019
GPGPU-Sim PTX: 17100000 instructions simulated : ctaid=(13,5,0) tid=(15,0,0)
GPGPU-Sim PTX: 17200000 instructions simulated : ctaid=(10,0,0) tid=(12,0,0)
GPGPU-Sim PTX: 17300000 instructions simulated : ctaid=(11,4,0) tid=(7,7,0)
GPGPU-Sim PTX: 17400000 instructions simulated : ctaid=(11,4,0) tid=(15,1,0)
GPGPU-Sim PTX: 17500000 instructions simulated : ctaid=(15,5,0) tid=(5,1,0)
GPGPU-Sim uArch: cycles simulated: 64500  inst.: 17081961 (ipc=264.8) sim_rate=427049 (inst/sec) elapsed = 0:0:00:40 / Wed May  1 12:43:58 2019
GPGPU-Sim PTX: 17600000 instructions simulated : ctaid=(8,6,0) tid=(5,0,0)
GPGPU-Sim PTX: 17700000 instructions simulated : ctaid=(2,5,0) tid=(1,3,0)
GPGPU-Sim PTX: 17800000 instructions simulated : ctaid=(7,6,0) tid=(15,7,0)
GPGPU-Sim PTX: 17900000 instructions simulated : ctaid=(15,6,0) tid=(9,7,0)
GPGPU-Sim PTX: 18000000 instructions simulated : ctaid=(1,7,0) tid=(5,2,0)
GPGPU-Sim uArch: Shader 12 finished CTA #3 (65570,0), 4 CTAs running
GPGPU-Sim uArch: core: 12, cta: 3 initialized @(65571,0)
GPGPU-Sim PTX: 18100000 instructions simulated : ctaid=(2,6,0) tid=(13,5,0)
GPGPU-Sim uArch: Shader 14 finished CTA #1 (65732,0), 4 CTAs running
GPGPU-Sim uArch: core: 14, cta: 1 initialized @(65733,0)
GPGPU-Sim uArch: Shader 14 finished CTA #0 (65855,0), 4 CTAs running
GPGPU-Sim uArch: core: 14, cta: 0 initialized @(65856,0)
GPGPU-Sim PTX: 18200000 instructions simulated : ctaid=(8,6,0) tid=(10,5,0)
GPGPU-Sim uArch: cycles simulated: 66000  inst.: 17756975 (ipc=269.0) sim_rate=433096 (inst/sec) elapsed = 0:0:00:41 / Wed May  1 12:43:59 2019
GPGPU-Sim PTX: 18300000 instructions simulated : ctaid=(5,5,0) tid=(4,1,0)
GPGPU-Sim uArch: Shader 9 finished CTA #3 (66170,0), 4 CTAs running
GPGPU-Sim uArch: core:  9, cta: 3 initialized @(66171,0)
GPGPU-Sim uArch: Shader 4 finished CTA #0 (66295,0), 4 CTAs running
GPGPU-Sim uArch: core:  4, cta: 0 initialized @(66296,0)
GPGPU-Sim uArch: Shader 4 finished CTA #2 (66301,0), 4 CTAs running
GPGPU-Sim uArch: core:  4, cta: 2 initialized @(66302,0)
GPGPU-Sim PTX: 18400000 instructions simulated : ctaid=(8,5,0) tid=(12,1,0)
GPGPU-Sim uArch: Shader 10 finished CTA #4 (66378,0), 4 CTAs running
GPGPU-Sim uArch: core: 10, cta: 4 initialized @(66379,0)
GPGPU-Sim uArch: Shader 7 finished CTA #4 (66473,0), 4 CTAs running
GPGPU-Sim uArch: core:  7, cta: 4 initialized @(66474,0)
GPGPU-Sim uArch: Shader 4 finished CTA #3 (66479,0), 4 CTAs running
GPGPU-Sim uArch: core:  4, cta: 3 initialized @(66480,0)
GPGPU-Sim PTX: 18500000 instructions simulated : ctaid=(11,5,0) tid=(14,3,0)
GPGPU-Sim uArch: Shader 4 finished CTA #1 (66695,0), 4 CTAs running
GPGPU-Sim uArch: core:  4, cta: 1 initialized @(66696,0)
GPGPU-Sim PTX: 18600000 instructions simulated : ctaid=(13,4,0) tid=(2,2,0)
GPGPU-Sim uArch: Shader 10 finished CTA #3 (66760,0), 4 CTAs running
GPGPU-Sim uArch: core: 10, cta: 3 initialized @(66761,0)
GPGPU-Sim PTX: 18700000 instructions simulated : ctaid=(5,5,0) tid=(1,7,0)
GPGPU-Sim uArch: Shader 13 finished CTA #1 (66933,0), 4 CTAs running
GPGPU-Sim uArch: core: 13, cta: 1 initialized @(66934,0)
GPGPU-Sim uArch: Shader 13 finished CTA #0 (66951,0), 4 CTAs running
GPGPU-Sim uArch: core: 13, cta: 0 initialized @(66952,0)
GPGPU-Sim uArch: Shader 13 finished CTA #3 (66991,0), 4 CTAs running
GPGPU-Sim uArch: core: 13, cta: 3 initialized @(66992,0)
GPGPU-Sim uArch: cycles simulated: 67000  inst.: 18240249 (ipc=272.2) sim_rate=434291 (inst/sec) elapsed = 0:0:00:42 / Wed May  1 12:44:00 2019
GPGPU-Sim PTX: 18800000 instructions simulated : ctaid=(10,6,0) tid=(12,5,0)
[...]
dq_lat_table:0 	0 	0 	0 	0 	0 	0 	0 	0 	0 	0 	0 	0 	0 	0 	0 	0 	0 	0 	0 	0 	0 	0 	0 	0 	0 	0 	0 	0 	0 	0 	0 	
mf_lat_table:0 	0 	0 	0 	0 	0 	0 	46473 	7985 	2844 	2868 	3548 	203 	0 	0 	0 	0 	0 	0 	0 	0 	0 	0 	0 	0 	0 	0 	0 	0 	0 	0 	0 	
icnt2mem_lat_table:0 	0 	0 	20285 	12492 	12870 	27652 	2011 	1311 	2626 	2157 	142 	0 	0 	0 	0 	0 	0 	0 	0 	0 	0 	0 	0 	
icnt2sh_lat_table:0 	0 	0 	5168 	3911 	1803 	293 	0 	0 	69 	140 	313 	771 	1756 	3539 	8951 	22824 	14383 	0 	0 	0 	0 	0 	0 	
mf_lat_pw_table:0 	0 	0 	0 	0 	0 	0 	203 	40 	11 	19 	43 	0 	0 	0 	0 	0 	0 	0 	0 	0 	0 	0 	0 	0 	0 	0 	0 	0 	0 	0 	0 	
maximum concurrent accesses to same row:
dram[0]:        46        56        36        34        26        20        44        27        29        20        18        17        17        30        35        20 
dram[1]:        52        54        34        32        18        22        40        43        26        29        31        21        16        20        26        24 
dram[2]:        62        62        60        56        30        30        27        41        27        26        22        27        42        18        24        29 
dram[3]:        60        62        60        58        26        30        45        38        36        20        15        15        19        24        28        25 
dram[4]:        62        64        60        54        32        32        34        25        26        24        22        18        19        26        22        18 
dram[5]:        62        62        58        56        30        32        26        40        22        26        18        51        19        42        18        32 
maximum service time to same row:
dram[0]:     18306     25930     18953     17968     18143     21621     23194     17539     18618     21845     40923     20009     22478     23779     22115     19844 
dram[1]:     15322     24867     17810     19416     17525     13857     15523     20624     18768     21234     19050     43522     38891     37265     19278     19325 
dram[2]:     13561     20835     20597     18974     17117     24255     18500     18144     19616     20750     21208     21514     32242     30983     19994     36738 
dram[3]:     17221     21250     34182     19031     32740     16184     17206     17181     19307     20482     39082     20185     30446     29118     19025     19145 
dram[4]:     14551     29441     18059     29131     20048     33085     13913     18593     18949     21139     49203     21071     30473     31209     22366     20726 
dram[5]:     17688     19097     18054     19132     17293     14538     16510     17930     18621     20562     39709     29382     29387     30042     21372     20822 
average row accesses per activate:
dram[0]:  6.215686  6.115385  6.063830  5.263158  4.346667  3.122642  4.102273  4.089888  4.208791  4.258427  4.062500  3.918605  4.180723  4.455696  4.733333  4.469697 
dram[1]:  4.575000  6.071429  4.800000  4.242424  3.327273  3.442105  3.282258  3.708333  3.621849  3.478261  3.727273  3.709677  3.800000  4.268293  4.297297  4.701492 
dram[2]:  6.120000  7.219512  7.820513  6.133333  4.148649  4.012048  3.325000  4.940299  3.607143  4.094737  3.580000  3.885057  5.701755  3.914894  5.576271  5.865385 
dram[3]:  7.536585  5.327869  8.030303  5.655172  4.040000  3.481818  3.954023  3.495238  3.840425  3.591304  3.555556  3.876405  4.637681  3.878788  4.412698  4.064103 
dram[4]:  5.620690  7.452381  7.000000  5.338983  3.987654  3.574713  4.320000  3.412281  3.824742  5.531250  4.160000  3.625000  4.300000  5.028169  5.290909  4.428571 
dram[5]:  4.869565  6.173077  6.058824  6.044445  3.808511  3.850000  3.456897  3.797753  3.314049  4.227273  3.956989  5.016949  4.145833  4.440476  4.613333  5.274510 
average row locality = 32469/7519 = 4.318260
number of total memory accesses made:
dram[0]:         0         0         0         0         0         0         0         0         0         0         0         0         0         0         0         0 
dram[1]:         0         0         0         0         0         0         0         0         0         0         0         0         0         0         0         0 
dram[2]:         0         0         0         0         0         0         0         0         0         0         0         0         0         0         0         0 
dram[3]:         0         0         0         0         0         0         0         0         0         0         0         0         0         0         0         0 
dram[4]:         0         0         0         0         0         0         0         0         0         0         0         0         0         0         0         0 
dram[5]:         0         0         0         0         0         0         0         0         0         0         0         0         0         0         0         0 
total accesses: 0
min_bank_accesses = 0!
min_chip_accesses = 0!
number of total read accesses:
dram[0]:       144       138       122       130       137       135       142       145       154       154       132       139       145       146       121       126 
dram[1]:       161       147       130       121       151       135       164       141       173       158       146       138       170       146       133       133 
dram[2]:       136       133       129       122       128       136       158       135       167       158       147       137       132       154       140       128 
dram[3]:       136       141       113       141       123       157       136       148       142       166       130       141       136       160       122       132 
dram[4]:       143       141       123       136       133       129       132       159       153       144       127       143       145       147       126       136 
dram[5]:       146       143       130       117       147       125       161       140       164       150       152       118       166       157       144       116 
total reads: 13514
bank skew: 173/113 = 1.53
chip skew: 2347/2210 = 1.06
number of total write accesses:
dram[0]:       173       180       163       170       189       196       219       219       229       225       193       198       202       206       163       169 
dram[1]:       205       193       182       159       215       192       243       215       258       242       223       207       248       204       185       182 
dram[2]:       170       163       176       154       179       197       241       196       237       231       211       201       193       214       189       177 
dram[3]:       173       184       152       187       180       226       208       219       219       247       190       204       184       224       156       185 
dram[4]:       183       172       157       179       190       182       192       230       218       210       185       205       199       210       165       174 
dram[5]:       190       178       179       155       211       183       240       198       237       222       216       178       232       216       202       153 
total reads: 18955
bank skew: 258/152 = 1.70
chip skew: 3353/3051 = 1.10
average mf latency per bank:
dram[0]:        981       650      1038       768      1050       878      1134       905       870       765      1005       866       878       806       965       801
dram[1]:        810       658       792       888       773       826       836       885       689       706       812       793       688       750       868       850
dram[2]:        926       909      1091      1123      1219      1042      1050      1153       858       838       905       903      1090       828      1024      1024
dram[3]:        741       812      1065       926       873       781       929       907       813       707       828       808       848       747       922       769
dram[4]:        816       791      1184      1005      1114      1227      1287      1055       955       999      1083       996       981       953       993       966
dram[5]:        733       698       933       971       814       905       763       915       676       729       757       924       631       700       755       988
maximum mf latency per bank:
dram[0]:       3964      2739      4951      2920      4285      3409      4183      3656      4140      3282      4083      3329      4194      3779      3692      3041
dram[1]:       3041      2928      4007      3577      3386      3781      3893      3370      3423      2974      4003      3045      3389      3464      3448      3069
dram[2]:       4636      4424      6103      5481      5055      4801      4470      3947      4449      4641      3811      3960      4790      4318      4270      3996
dram[3]:       4305      4957      4830      5485      4513      4269      4235      4791      4497      4325      3044      4540      3883      3782      3212      4022
dram[4]:       4579      4737      5322      5376      4932      5229      5248      4580      5308      5244      4252      5016      4929      3803      3741      4809
dram[5]:       5092      4459      5317      5797      5546      4971      5531      4325      5445      5251      3897      4992      4265      3975      3798      4148

Number of Memory Banks Accessed per Memory Operation per Warp (from 0):
0	0	0	0	0	0	0	0	0	0	0	0	0	0	0	0	0	0	0	0	0	0	0	0	0	0	0	0	0	0	0	0	0	0	0	0	0	0	0	0	0	0	0	0	0	0	0	0	0	0	0	0	0	0	0	0	0	0	0	0	0	0	0	0	0	0	0	0	0	0	0	0	0	0	0	0	0	0	0	0	0	0	0	0	0	0	0	0	0	0	0	0	0	0	0	0	
Average # of Memory Banks Accessed per Memory Operation per Warp=-nan

position of mrq chosen
0	0	0	0	0	0	0	0	0	0	0	0	0	0	0	0	

average position of mrq chosen = -nan
Memory Partition 0: 
Cache L2_bank_000:
MSHR contents

Cache L2_bank_001:
MSHR contents

In Dram Latency Queue (total = 0): 
DRAM[0]: 16 bks, busW=1 BL=8 CL=12, tRRD=2 tCCD=6, tRCD=12 tRAS=28 tRP=12 tRC=40
n_cmd=223645 n_nop=180885 n_act=1199 n_pre=1183 n_req=5304 n_rd=17680 n_write=22698 bw_util=0.3611
n_activity=113591 dram_eff=0.7109
bk0: 1152a 195206i bk1: 1104a 195840i bk2: 976a 192403i bk3: 1040a 193172i bk4: 1096a 185399i bk5: 1080a 182388i bk6: 1136a 179330i bk7: 1160a 179546i bk8: 1232a 185139i bk9: 1232a 185176i bk10: 1056a 185922i bk11: 1112a 185484i bk12: 1160a 186263i bk13: 1168a 183489i bk14: 968a 190691i bk15: 1008a 189973i 
dram_util_bins: 0 0 0 0 0 0 0 0 0 0
dram_eff_bins: 0 0 0 0 0 0 0 0 0 0
mrqq: max=16 avg=4.75033
Memory Partition 1: 
Cache L2_bank_002:
MSHR contents

Cache L2_bank_003:
MSHR contents

In Dram Latency Queue (total = 0): 
DRAM[1]: 16 bks, busW=1 BL=8 CL=12, tRRD=2 tCCD=6, tRCD=12 tRAS=28 tRP=12 tRC=40
n_cmd=223645 n_nop=177319 n_act=1451 n_pre=1435 n_req=5700 n_rd=18776 n_write=24664 bw_util=0.3885
n_activity=120811 dram_eff=0.7191
bk0: 1288a 188295i bk1: 1176a 189733i bk2: 1040a 188331i bk3: 968a 191129i bk4: 1208a 181333i bk5: 1080a 181802i bk6: 1312a 173880i bk7: 1128a 179518i bk8: 1384a 180677i bk9: 1264a 180489i bk10: 1168a 179428i bk11: 1104a 184530i bk12: 1360a 178454i bk13: 1168a 182662i bk14: 1064a 183489i bk15: 1064a 184253i 
dram_util_bins: 0 0 0 0 0 0 0 0 0 0
dram_eff_bins: 0 0 0 0 0 0 0 0 0 0
mrqq: max=16 avg=4.87075
Memory Partition 2: 
Cache L2_bank_004:
MSHR contents

Cache L2_bank_005:
MSHR contents

In Dram Latency Queue (total = 0): 
DRAM[2]: 16 bks, busW=1 BL=8 CL=12, tRRD=2 tCCD=6, tRCD=12 tRAS=28 tRP=12 tRC=40
n_cmd=223645 n_nop=180457 n_act=1175 n_pre=1159 n_req=5369 n_rd=17920 n_write=22934 bw_util=0.3653
n_activity=115660 dram_eff=0.7064
bk0: 1088a 196680i bk1: 1064a 195844i bk2: 1032a 193665i bk3: 976a 194982i bk4: 1024a 186469i bk5: 1088a 185134i bk6: 1264a 176981i bk7: 1080a 184858i bk8: 1336a 181808i bk9: 1264a 182996i bk10: 1176a 186487i bk11: 1096a 186051i bk12: 1056a 188406i bk13: 1232a 182022i bk14: 1120a 183943i bk15: 1024a 189449i 
dram_util_bins: 0 0 0 0 0 0 0 0 0 0
dram_eff_bins: 0 0 0 0 0 0 0 0 0 0
mrqq: max=16 avg=4.93357
Memory Partition 3: 
Cache L2_bank_006:
MSHR contents

Cache L2_bank_007:
MSHR contents

In Dram Latency Queue (total = 0): 
DRAM[3]: 16 bks, busW=1 BL=8 CL=12, tRRD=2 tCCD=6, tRCD=12 tRAS=28 tRP=12 tRC=40
n_cmd=223645 n_nop=180281 n_act=1267 n_pre=1251 n_req=5362 n_rd=17792 n_write=23054 bw_util=0.3653
n_activity=116202 dram_eff=0.703
bk0: 1088a 195131i bk1: 1128a 193876i bk2: 904a 195935i bk3: 1128a 190028i bk4: 984a 188644i bk5: 1256a 181821i bk6: 1088a 183231i bk7: 1184a 179283i bk8: 1136a 187718i bk9: 1328a 181694i bk10: 1040a 188414i bk11: 1128a 185708i bk12: 1088a 188151i bk13: 1280a 179757i bk14: 976a 189790i bk15: 1056a 187249i 
dram_util_bins: 0 0 0 0 0 0 0 0 0 0
dram_eff_bins: 0 0 0 0 0 0 0 0 0 0
mrqq: max=16 avg=4.58282
Memory Partition 4: 
Cache L2_bank_008:
MSHR contents

Cache L2_bank_009:
MSHR contents

In Dram Latency Queue (total = 0): 
DRAM[4]: 16 bks, busW=1 BL=8 CL=12, tRRD=2 tCCD=6, tRCD=12 tRAS=28 tRP=12 tRC=40
n_cmd=223645 n_nop=181237 n_act=1164 n_pre=1148 n_req=5268 n_rd=17736 n_write=22360 bw_util=0.3586
n_activity=113741 dram_eff=0.705
bk0: 1144a 195654i bk1: 1128a 193959i bk2: 984a 194862i bk3: 1088a 191339i bk4: 1064a 184257i bk5: 1032a 184211i bk6: 1056a 182856i bk7: 1272a 177182i bk8: 1224a 184306i bk9: 1152a 184288i bk10: 1016a 188513i bk11: 1144a 185808i bk12: 1160a 186022i bk13: 1176a 183089i bk14: 1008a 192425i bk15: 1088a 189068i 
dram_util_bins: 0 0 0 0 0 0 0 0 0 0
dram_eff_bins: 0 0 0 0 0 0 0 0 0 0
mrqq: max=16 avg=4.7275
Memory Partition 5: 
Cache L2_bank_010:
MSHR contents

Cache L2_bank_011:
MSHR contents

In Dram Latency Queue (total = 0): 
DRAM[5]: 16 bks, busW=1 BL=8 CL=12, tRRD=2 tCCD=6, tRCD=12 tRAS=28 tRP=12 tRC=40
n_cmd=223645 n_nop=179481 n_act=1263 n_pre=1247 n_req=5466 n_rd=18208 n_write=23446 bw_util=0.3725
n_activity=117087 dram_eff=0.7115
bk0: 1168a 190705i bk1: 1144a 192263i bk2: 1040a 192751i bk3: 936a 194233i bk4: 1176a 181021i bk5: 1000a 187650i bk6: 1288a 178046i bk7: 1120a 181476i bk8: 1312a 184766i bk9: 1200a 181519i bk10: 1216a 183628i bk11: 944a 187531i bk12: 1328a 183906i bk13: 1256a 182461i bk14: 1152a 184094i bk15: 928a 190569i 
dram_util_bins: 0 0 0 0 0 0 0 0 0 0
dram_eff_bins: 0 0 0 0 0 0 0 0 0 0
mrqq: max=16 avg=4.71275

========= L2 cache stats =========
L2_cache_bank[0]: Access = 6831, Miss = 1097, Miss_rate = 0.161, Pending_hits = 114, Reservation_fails = 2345
L2_cache_bank[1]: Access = 6891, Miss = 1113, Miss_rate = 0.162, Pending_hits = 105, Reservation_fails = 345
L2_cache_bank[2]: Access = 6737, Miss = 1228, Miss_rate = 0.182, Pending_hits = 135, Reservation_fails = 1308
L2_cache_bank[3]: Access = 6762, Miss = 1119, Miss_rate = 0.165, Pending_hits = 108, Reservation_fails = 583
L2_cache_bank[4]: Access = 6682, Miss = 1137, Miss_rate = 0.170, Pending_hits = 126, Reservation_fails = 1568
L2_cache_bank[5]: Access = 6885, Miss = 1103, Miss_rate = 0.160, Pending_hits = 105, Reservation_fails = 423
L2_cache_bank[6]: Access = 6927, Miss = 1038, Miss_rate = 0.150, Pending_hits = 99, Reservation_fails = 1184
L2_cache_bank[7]: Access = 7072, Miss = 1186, Miss_rate = 0.168, Pending_hits = 109, Reservation_fails = 1100
L2_cache_bank[8]: Access = 6777, Miss = 1082, Miss_rate = 0.160, Pending_hits = 108, Reservation_fails = 1057
L2_cache_bank[9]: Access = 6596, Miss = 1135, Miss_rate = 0.172, Pending_hits = 119, Reservation_fails = 1289
L2_cache_bank[10]: Access = 6785, Miss = 1210, Miss_rate = 0.178, Pending_hits = 118, Reservation_fails = 437
L2_cache_bank[11]: Access = 6601, Miss = 1066, Miss_rate = 0.161, Pending_hits = 120, Reservation_fails = 446
L2_total_cache_accesses = 81546
L2_total_cache_misses = 13514
L2_total_cache_miss_rate = 0.1657
L2_total_cache_pending_hits = 1366
L2_total_cache_reservation_fails = 12085
L2_total_cache_breakdown:
	L2_cache_stats_breakdown[GLOBAL_ACC_R][HIT] = 3603
	L2_cache_stats_breakdown[GLOBAL_ACC_R][HIT_RESERVED] = 16
	L2_cache_stats_breakdown[GLOBAL_ACC_R][MISS] = 177
	L2_cache_stats_breakdown[GLOBAL_ACC_R][RESERVATION_FAIL] = 979
	L2_cache_stats_breakdown[LOCAL_ACC_R][HIT] = 6702
	L2_cache_stats_breakdown[LOCAL_ACC_R][HIT_RESERVED] = 211
	L2_cache_stats_breakdown[LOCAL_ACC_R][MISS] = 436
	L2_cache_stats_breakdown[CONST_ACC_R][HIT] = 22
	L2_cache_stats_breakdown[CONST_ACC_R][HIT_RESERVED] = 6
	L2_cache_stats_breakdown[CONST_ACC_R][MISS] = 2
	L2_cache_stats_breakdown[CONST_ACC_R][RESERVATION_FAIL] = 1263
	L2_cache_stats_breakdown[GLOBAL_ACC_W][HIT] = 5199
	L2_cache_stats_breakdown[GLOBAL_ACC_W][HIT_RESERVED] = 945
	L2_cache_stats_breakdown[GLOBAL_ACC_W][MISS] = 2048
	L2_cache_stats_breakdown[GLOBAL_ACC_W][RESERVATION_FAIL] = 21
	L2_cache_stats_breakdown[LOCAL_ACC_W][HIT] = 35037
	L2_cache_stats_breakdown[LOCAL_ACC_W][HIT_RESERVED] = 37
	L2_cache_stats_breakdown[LOCAL_ACC_W][MISS] = 9480
	L2_cache_stats_breakdown[LOCAL_ACC_W][RESERVATION_FAIL] = 689
	L2_cache_stats_breakdown[L1_WRBK_ACC][HIT] = 3594
	L2_cache_stats_breakdown[L1_WRBK_ACC][MISS] = 1317
	L2_cache_stats_breakdown[L1_WRBK_ACC][RESERVATION_FAIL] = 3
	L2_cache_stats_breakdown[INST_ACC_R][HIT] = 12509
	L2_cache_stats_breakdown[INST_ACC_R][HIT_RESERVED] = 151
	L2_cache_stats_breakdown[INST_ACC_R][MISS] = 54
	L2_cache_stats_breakdown[INST_ACC_R][RESERVATION_FAIL] = 9130
L2_cache_data_port_util = 0.126
L2_cache_fill_port_util = 0.027

icnt_total_pkts_mem_to_simt=172131
icnt_total_pkts_simt_to_mem=292539
LD_mem_lat_dist  0 0 0 0 0 0 0 0 0 0 0 0 0 0 0 0 0 0 0 0 0 0 0 0 0 0 0
ST_mem_lat_dist  0 0 0 0 0 0 0 0 0 0 0 0 0 0 0 0 0 0 0 0 0 0 0 0 0 0 0
----------------------------Interconnect-DETAILS--------------------------------
Class 0:
Packet latency average = 26.1618
	minimum = 6
	maximum = 2241
Network latency average = 19.6702
	minimum = 6
	maximum = 2067
Slowest packet = 1355
Flit latency average = 20.1596
	minimum = 6
	maximum = 2063
Slowest flit = 4996
Fragmentation average = 0.606103
	minimum = 0
	maximum = 1799
Injected packet rate average = 0.0345782
	minimum = 0.0294755 (at node 2)
	maximum = 0.0391787 (at node 22)
Accepted packet rate average = 0.0345782
	minimum = 0.0284898 (at node 2)
	maximum = 0.0417402 (at node 22)
Injected flit rate average = 0.101576
	minimum = 0.0805057 (at node 19)
	maximum = 0.125716 (at node 4)
Accepted flit rate average= 0.101576
	minimum = 0.0558169 (at node 0)
	maximum = 0.147248 (at node 22)
Injected packet length average = 2.93758
Accepted packet length average = 2.93758
Total in-flight flits = 0 (0 measured)
====== Overall Traffic Statistics ======
====== Traffic class 0 ======
Packet latency average = 26.1618 (1 samples)
	minimum = 6 (1 samples)
	maximum = 2241 (1 samples)
Network latency average = 19.6702 (1 samples)
	minimum = 6 (1 samples)
	maximum = 2067 (1 samples)
Flit latency average = 20.1596 (1 samples)
	minimum = 6 (1 samples)
	maximum = 2063 (1 samples)
Fragmentation average = 0.606103 (1 samples)
	minimum = 0 (1 samples)
	maximum = 1799 (1 samples)
Injected packet rate average = 0.0345782 (1 samples)
	minimum = 0.0294755 (1 samples)
	maximum = 0.0391787 (1 samples)
Accepted packet rate average = 0.0345782 (1 samples)
	minimum = 0.0284898 (1 samples)
	maximum = 0.0417402 (1 samples)
Injected flit rate average = 0.101576 (1 samples)
	minimum = 0.0805057 (1 samples)
	maximum = 0.125716 (1 samples)
Accepted flit rate average = 0.101576 (1 samples)
	minimum = 0.0558169 (1 samples)
	maximum = 0.147248 (1 samples)
Injected packet size average = 2.93758 (1 samples)
Accepted packet size average = 2.93758 (1 samples)
Hops average = 1 (1 samples)
----------------------------END-of-Interconnect-DETAILS-------------------------


gpgpu_simulation_time = 0 days, 0 hrs, 2 min, 13 sec (133 sec)
gpgpu_simulation_rate = 471297 (inst/sec)
gpgpu_simulation_rate = 1273 (cycle/sec)
GPGPU-Sim: synchronize waiting for inactive GPU simulation
GPGPU-Sim API: Stream Manager State
GPGPU-Sim: detected inactive GPU simulation thread

checksum=75ef40cb5b8e
Kernel Time: 132591.359375 
