

        *** GPGPU-Sim Simulator Version 3.2.2  [build 0] ***


GPGPU-Sim PTX: simulation mode 0 (can change with PTX_SIM_MODE_FUNC environment variable:
               1=functional simulation only, 0=detailed performance simulator)
GPGPU-Sim: Configuration options:

-network_mode                           1 # Interconnection network mode
-inter_config_file   config_fermi_islip.icnt # Interconnection network config file
-gpgpu_ptx_use_cuobjdump                    1 # Use cuobjdump to extract ptx and sass from binaries
-gpgpu_experimental_lib_support                    0 # Try to extract code from cuda libraries [Broken because of unknown cudaGetExportTable]
-gpgpu_ptx_convert_to_ptxplus                    0 # Convert SASS (native ISA) to ptxplus and run ptxplus
-gpgpu_ptx_force_max_capability                   20 # Force maximum compute capability
-gpgpu_ptx_inst_debug_to_file                    0 # Dump executed instructions' debug information to file
-gpgpu_ptx_inst_debug_file       inst_debug.txt # Executed instructions' debug output file
-gpgpu_ptx_inst_debug_thread_uid                    1 # Thread UID for executed instructions' debug output
-gpgpu_simd_model                       1 # 1 = post-dominator
-gpgpu_shader_core_pipeline              1536:32 # shader core pipeline config, i.e., {<nthread>:<warpsize>}
-gpgpu_tex_cache:l1  4:128:24,L:R:m:N:L,F:128:4,128:2 # per-shader L1 texture cache  (READ-ONLY) config  {<nsets>:<bsize>:<assoc>,<rep>:<wr>:<alloc>:<wr_alloc>,<mshr>:<N>:<merge>,<mq>:<rf>}
-gpgpu_const_cache:l1 64:64:2,L:R:f:N:L,A:2:32,4 # per-shader L1 constant memory cache  (READ-ONLY) config  {<nsets>:<bsize>:<assoc>,<rep>:<wr>:<alloc>:<wr_alloc>,<mshr>:<N>:<merge>,<mq>} 
-gpgpu_cache:il1     4:128:4,L:R:f:N:L,A:2:32,4 # shader L1 instruction cache config  {<nsets>:<bsize>:<assoc>,<rep>:<wr>:<alloc>:<wr_alloc>,<mshr>:<N>:<merge>,<mq>} 
-gpgpu_cache:dl1     64:128:1,L:L:m:N:H,A:32:8,8 # per-shader L1 data cache config  {<nsets>:<bsize>:<assoc>,<rep>:<wr>:<alloc>:<wr_alloc>,<mshr>:<N>:<merge>,<mq> | none}
-gpgpu_cache:dl1PrefL1                 none # per-shader L1 data cache config  {<nsets>:<bsize>:<assoc>,<rep>:<wr>:<alloc>:<wr_alloc>,<mshr>:<N>:<merge>,<mq> | none}
-gpgpu_cache:dl1PreShared                 none # per-shader L1 data cache config  {<nsets>:<bsize>:<assoc>,<rep>:<wr>:<alloc>:<wr_alloc>,<mshr>:<N>:<merge>,<mq> | none}
-gmem_skip_L1D                          0 # global memory access skip L1D cache (implements -Xptxas -dlcm=cg, default=no skip)
-gpgpu_perfect_mem                      0 # enable perfect memory mode (no cache miss)
-n_regfile_gating_group                    4 # group of lanes that should be read/written together)
-gpgpu_clock_gated_reg_file                    0 # enable clock gated reg file for power calculations
-gpgpu_clock_gated_lanes                    0 # enable clock gated lanes for power calculations
-gpgpu_shader_registers                32768 # Number of registers per shader core. Limits number of concurrent CTAs. (default 8192)
-gpgpu_shader_cta                       8 # Maximum number of concurrent CTAs in shader (default 8)
-gpgpu_num_cta_barriers                   16 # Maximum number of named barriers per CTA (default 16)
-gpgpu_n_clusters                      15 # number of processing clusters
-gpgpu_n_cores_per_cluster                    1 # number of simd cores per cluster
-gpgpu_n_cluster_ejection_buffer_size                    8 # number of packets in ejection buffer
-gpgpu_n_ldst_response_buffer_size                    2 # number of response packets in ld/st unit ejection buffer
-gpgpu_shmem_size                   16384 # Size of shared memory per shader core (default 16kB)
-gpgpu_shmem_size                   49152 # Size of shared memory per shader core (default 16kB)
-gpgpu_shmem_size_PrefL1                16384 # Size of shared memory per shader core (default 16kB)
-gpgpu_shmem_size_PrefShared                16384 # Size of shared memory per shader core (default 16kB)
-gpgpu_shmem_num_banks                   32 # Number of banks in the shared memory in each shader core (default 16)
-gpgpu_shmem_limited_broadcast                    0 # Limit shared memory to do one broadcast per cycle (default on)
-gpgpu_shmem_warp_parts                    1 # Number of portions a warp is divided into for shared memory bank conflict check 
-gpgpu_warpdistro_shader                   -1 # Specify which shader core to collect the warp size distribution from
-gpgpu_warp_issue_shader                    0 # Specify which shader core to collect the warp issue distribution from
-gpgpu_local_mem_map                    1 # Mapping from local memory space address to simulated GPU physical address space (default = enabled)
-gpgpu_num_reg_banks                   16 # Number of register banks (default = 8)
-gpgpu_reg_bank_use_warp_id                    0 # Use warp ID in mapping registers to banks (default = off)
-gpgpu_operand_collector_num_units_sp                    6 # number of collector units (default = 4)
-gpgpu_operand_collector_num_units_sfu                    8 # number of collector units (default = 4)
-gpgpu_operand_collector_num_units_mem                    2 # number of collector units (default = 2)
-gpgpu_operand_collector_num_units_gen                    0 # number of collector units (default = 0)
-gpgpu_operand_collector_num_in_ports_sp                    2 # number of collector unit in ports (default = 1)
-gpgpu_operand_collector_num_in_ports_sfu                    1 # number of collector unit in ports (default = 1)
-gpgpu_operand_collector_num_in_ports_mem                    1 # number of collector unit in ports (default = 1)
-gpgpu_operand_collector_num_in_ports_gen                    0 # number of collector unit in ports (default = 0)
-gpgpu_operand_collector_num_out_ports_sp                    2 # number of collector unit in ports (default = 1)
-gpgpu_operand_collector_num_out_ports_sfu                    1 # number of collector unit in ports (default = 1)
-gpgpu_operand_collector_num_out_ports_mem                    1 # number of collector unit in ports (default = 1)
-gpgpu_operand_collector_num_out_ports_gen                    0 # number of collector unit in ports (default = 0)
-gpgpu_coalesce_arch                   13 # Coalescing arch (default = 13, anything else is off for now)
-gpgpu_num_sched_per_core                    2 # Number of warp schedulers per core
-gpgpu_max_insn_issue_per_warp                    1 # Max number of instructions that can be issued per warp in one cycle by scheduler
-gpgpu_simt_core_sim_order                    1 # Select the simulation order of cores in a cluster (0=Fix, 1=Round-Robin)
-gpgpu_pipeline_widths        2,1,1,2,1,1,2 # Pipeline widths ID_OC_SP,ID_OC_SFU,ID_OC_MEM,OC_EX_SP,OC_EX_SFU,OC_EX_MEM,EX_WB
-gpgpu_num_sp_units                     2 # Number of SP units (default=1)
-gpgpu_num_sfu_units                    1 # Number of SF units (default=1)
-gpgpu_num_mem_units                    1 # Number if ldst units (default=1) WARNING: not hooked up to anything
-gpgpu_scheduler                      gto # Scheduler configuration: < lrr | gto | two_level_active > If two_level_active:<num_active_warps>:<inner_prioritization>:<outer_prioritization>For complete list of prioritization values see shader.h enum scheduler_prioritization_typeDefault: gto
-gpgpu_dram_scheduler                    1 # 0 = fifo, 1 = FR-FCFS (defaul)
-gpgpu_dram_partition_queues              8:8:8:8 # i2$:$2d:d2$:$2i
-l2_ideal                               0 # Use a ideal L2 cache that always hit
-gpgpu_cache:dl2     64:128:8,L:B:m:W:L,A:32:4,4:0,32 # unified banked L2 data cache config  {<nsets>:<bsize>:<assoc>,<rep>:<wr>:<alloc>:<wr_alloc>,<mshr>:<N>:<merge>,<mq>}
-gpgpu_cache:dl2_texture_only                    0 # L2 cache used for texture only
-gpgpu_n_mem                            6 # number of memory modules (e.g. memory controllers) in gpu
-gpgpu_n_sub_partition_per_mchannel                    2 # number of memory subpartition in each memory module
-gpgpu_n_mem_per_ctrlr                    2 # number of memory chips per memory controller
-gpgpu_memlatency_stat                   14 # track and display latency statistics 0x2 enables MC, 0x4 enables queue logs
-gpgpu_frfcfs_dram_sched_queue_size                   16 # 0 = unlimited (default); # entries per chip
-gpgpu_dram_return_queue_size                  116 # 0 = unlimited (default); # entries per chip
-gpgpu_dram_buswidth                    4 # default = 4 bytes (8 bytes per cycle at DDR)
-gpgpu_dram_burst_length                    8 # Burst length of each DRAM request (default = 4 data bus cycle)
-dram_data_command_freq_ratio                    4 # Frequency ratio between DRAM data bus and command bus (default = 2 times, i.e. DDR)
-gpgpu_dram_timing_opt nbk=16:CCD=2:RRD=6:RCD=12:RAS=28:RP=12:RC=40: CL=12:WL=4:CDLR=5:WR=12:nbkgrp=4:CCDL=3:RTPL=2 # DRAM timing parameters = {nbk:tCCD:tRRD:tRCD:tRAS:tRP:tRC:CL:WL:tCDLR:tWR:nbkgrp:tCCDL:tRTPL}
-rop_latency                          120 # ROP queue latency (default 85)
-dram_latency                         100 # DRAM latency (default 30)
-gpgpu_mem_addr_mapping dramid@8;00000000.00000000.00000000.00000000.0000RRRR.RRRRRRRR.BBBCCCCB.CCSSSSSS # mapping memory address to dram model {dramid@<start bit>;<memory address map>}
-gpgpu_mem_addr_test                    0 # run sweep test to check address mapping for aliased address
-gpgpu_mem_address_mask                    1 # 0 = old addressing mask, 1 = new addressing mask, 2 = new add. mask + flipped bank sel and chip sel bits
-gpuwattch_xml_file  gpuwattch_gtx480.xml # GPUWattch XML file
-power_simulation_enabled                    1 # Turn on power simulator (1=On, 0=Off)
-power_per_cycle_dump                    0 # Dump detailed power output each cycle
-power_trace_enabled                    0 # produce a file for the power trace (1=On, 0=Off)
-power_trace_zlevel                     6 # Compression level of the power trace output log (0=no comp, 9=highest)
-steady_power_levels_enabled                    0 # produce a file for the steady power levels (1=On, 0=Off)
-steady_state_definition                  8:4 # allowed deviation:number of samples
-gpgpu_max_cycle                        0 # terminates gpu simulation early (0 = no limit)
-gpgpu_max_insn                         0 # terminates gpu simulation early (0 = no limit)
-gpgpu_max_cta                          0 # terminates gpu simulation early (0 = no limit)
-gpgpu_runtime_stat                   500 # display runtime statistics such as dram utilization {<freq>:<flag>}
-liveness_message_freq                    1 # Minimum number of seconds between simulation liveness messages (0 = always print)
-gpgpu_flush_l1_cache                    0 # Flush L1 cache at the end of each kernel call
-gpgpu_flush_l2_cache                    0 # Flush L2 cache at the end of each kernel call
-gpgpu_deadlock_detect                    1 # Stop the simulation at deadlock (1=on (default), 0=off)
-gpgpu_ptx_instruction_classification                    0 # if enabled will classify ptx instruction types per kernel (Max 255 kernels now)
-gpgpu_ptx_sim_mode                     0 # Select between Performance (default) or Functional simulation (1)
-gpgpu_clock_domains 700.0:700.0:700.0:924.0 # Clock Domain Frequencies in MhZ {<Core Clock>:<ICNT Clock>:<L2 Clock>:<DRAM Clock>}
-gpgpu_max_concurrent_kernel                    8 # maximum kernels that can run concurrently on GPU
-gpgpu_cflog_interval                    0 # Interval between each snapshot in control flow logger
-visualizer_enabled                     0 # Turn on visualizer output (1=On, 0=Off)
-visualizer_outputfile                 NULL # Specifies the output log file for visualizer
-visualizer_zlevel                      6 # Compression level of the visualizer output log (0=no comp, 9=highest)
-trace_enabled                          0 # Turn on traces
-trace_components                    none # comma seperated list of traces to enable. Complete list found in trace_streams.tup. Default none
-trace_sampling_core                    0 # The core which is printed using CORE_DPRINTF. Default 0
-trace_sampling_memory_partition                   -1 # The memory partition which is printed using MEMPART_DPRINTF. Default -1 (i.e. all)
-enable_ptx_file_line_stats                    1 # Turn on PTX source line statistic profiling. (1 = On)
-ptx_line_stats_filename gpgpu_inst_stats.txt # Output file for PTX source line statistics.
-save_embedded_ptx                      0 # saves ptx files embedded in binary as <n>.ptx
-keep                                   0 # keep intermediate files created by GPGPU-Sim when interfacing with external programs
-gpgpu_ptx_save_converted_ptxplus                    0 # Saved converted ptxplus to a file
-ptx_opcode_latency_int         4,13,4,5,145 # Opcode latencies for integers <ADD,MAX,MUL,MAD,DIV>Default 1,1,19,25,145
-ptx_opcode_latency_fp          4,13,4,5,39 # Opcode latencies for single precision floating points <ADD,MAX,MUL,MAD,DIV>Default 1,1,1,1,30
-ptx_opcode_latency_dp         8,19,8,8,330 # Opcode latencies for double precision floating points <ADD,MAX,MUL,MAD,DIV>Default 8,8,8,8,335
-ptx_opcode_initiation_int            1,2,2,1,8 # Opcode initiation intervals for integers <ADD,MAX,MUL,MAD,DIV>Default 1,1,4,4,32
-ptx_opcode_initiation_fp            1,2,1,1,4 # Opcode initiation intervals for single precision floating points <ADD,MAX,MUL,MAD,DIV>Default 1,1,1,1,5
-ptx_opcode_initiation_dp         8,16,8,8,130 # Opcode initiation intervals for double precision floating points <ADD,MAX,MUL,MAD,DIV>Default 8,8,8,8,130
DRAM Timing Options:
nbk                                    16 # number of banks
CCD                                     2 # column to column delay
RRD                                     6 # minimal delay between activation of rows in different banks
RCD                                    12 # row to column delay
RAS                                    28 # time needed to activate row
RP                                     12 # time needed to precharge (deactivate) row
RC                                     40 # row cycle time
CDLR                                    5 # switching from write to read (changes tWTR)
WR                                     12 # last data-in to row precharge
CL                                     12 # CAS latency
WL                                      4 # Write latency
nbkgrp                                  4 # number of bank groups
CCDL                                    3 # column to column delay between accesses to different bank groups
RTPL                                    2 # read to precharge delay between accesses to different bank groups
Total number of memory sub partition = 12
addr_dec_mask[CHIP]  = 0000000000000000 	high:64 low:0
addr_dec_mask[BK]    = 000000000000e100 	high:16 low:8
addr_dec_mask[ROW]   = 000000000fff0000 	high:28 low:16
addr_dec_mask[COL]   = 0000000000001eff 	high:13 low:0
addr_dec_mask[BURST] = 000000000000003f 	high:6 low:0
sub_partition_id_mask = 0000000000000100
GPGPU-Sim uArch: clock freqs: 700000000.000000:700000000.000000:700000000.000000:924000000.000000
GPGPU-Sim uArch: clock periods: 0.00000000142857142857:0.00000000142857142857:0.00000000142857142857:0.00000000108225108225
*** Initializing Memory Statistics ***
GPGPU-Sim uArch: interconnect node map (shaderID+MemID to icntID)
GPGPU-Sim uArch: Memory nodes ID start from index: 15
GPGPU-Sim uArch:    0   1   2   3   4
GPGPU-Sim uArch:    5   6   7   8   9
GPGPU-Sim uArch:   10  11  12  13  14
GPGPU-Sim uArch:   15  16  17  18  19
GPGPU-Sim uArch:   20  21  22  23  24
GPGPU-Sim uArch:   25  26
GPGPU-Sim uArch: interconnect node reverse map (icntID to shaderID+MemID)
GPGPU-Sim uArch: Memory nodes start from ID: 15
GPGPU-Sim uArch:    0   1   2   3   4
GPGPU-Sim uArch:    5   6   7   8   9
GPGPU-Sim uArch:   10  11  12  13  14
GPGPU-Sim uArch:   15  16  17  18  19
GPGPU-Sim uArch:   20  21  22  23  24
GPGPU-Sim uArch:   25  26
374dd9399470f26a44fab5f496e2e839  /home/scratch/adwait/applications/benchmarks/CUDA/STO/gpgpu_ptx_sim__STO
GPGPU-Sim uArch: performance model initialization complete.
GPGPU-Sim PTX: __cudaRegisterFatBinary, fat_cubin_handle = 1, filename=main.cu
self exe links to: /home/scratch/adwait/applications/benchmarks/CUDA/STO/gpgpu_ptx_sim__STO
Running md5sum using "md5sum /home/scratch/adwait/applications/benchmarks/CUDA/STO/gpgpu_ptx_sim__STO "
Running cuobjdump using "$CUDA_INSTALL_PATH/bin/cuobjdump -ptx -elf -sass /home/scratch/adwait/applications/benchmarks/CUDA/STO/gpgpu_ptx_sim__STO > _cuobjdump_complete_output_FOKr8k"
Parsing file _cuobjdump_complete_output_FOKr8k
######### cuobjdump parser ########
## Adding new section ELF
Adding arch: sm_20
Adding identifier: main.cu
## Adding new section PTX
Adding ptx filename: _cuobjdump_1.ptx
Adding arch: sm_20
Adding identifier: main.cu
## Adding new section ELF
Adding arch: sm_20
Adding identifier: storeGPU.cu
## Adding new section PTX
Adding ptx filename: _cuobjdump_2.ptx
Adding arch: sm_20
Adding identifier: storeGPU.cu
Done parsing!!!
GPGPU-Sim PTX: __cudaRegisterFatBinary, fat_cubin_handle = 2, filename=storeGPU.cu
GPGPU-Sim PTX: __cudaRegisterFunction _Z12sha1_overlapPhiiiiS_ : hostFun 0x0x40d965, fat_cubin_handle = 2
GPGPU-Sim PTX: allocating stack frame region for .param "__cudaretf__Z14macroRFunctioniPj" from 0x0 to 0x8
GPGPU-Sim PTX: allocating stack frame region for .param "__cudaparmf1__Z14macroRFunctioniPj" from 0x8 to 0xc
GPGPU-Sim PTX: allocating stack frame region for .param "__cudaparmf2__Z14macroRFunctioniPj" from 0xc to 0x14
GPGPU-Sim PTX: instruction assembly for function '_Z14macroRFunctioniPj'...   done.
GPGPU-Sim PTX: finding reconvergence points for '_Z14macroRFunctioniPj'...
GPGPU-Sim PTX: Finding dominators for '_Z14macroRFunctioniPj'...
GPGPU-Sim PTX: Finding immediate dominators for '_Z14macroRFunctioniPj'...
GPGPU-Sim PTX: Finding postdominators for '_Z14macroRFunctioniPj'...
GPGPU-Sim PTX: Finding immediate postdominators for '_Z14macroRFunctioniPj'...
GPGPU-Sim PTX: pre-decoding instructions for '_Z14macroRFunctioniPj'...
GPGPU-Sim PTX: reconvergence points for _Z14macroRFunctioniPj...
GPGPU-Sim PTX: ... end of reconvergence points for _Z14macroRFunctioniPj
GPGPU-Sim PTX: ... done pre-decoding instructions for '_Z14macroRFunctioniPj'.
GPGPU-Sim PTX: allocating shared region for "__cuda___cuda_local_var_35374_40_non_const_sharedMemory32" from 0x0 to 0x3f80 (shared memory space)
GPGPU-Sim PTX: instruction assembly for function '_Z3md5PhiiiS_'...   done.
GPGPU-Sim PTX: finding reconvergence points for '_Z3md5PhiiiS_'...
GPGPU-Sim PTX: Finding dominators for '_Z3md5PhiiiS_'...
GPGPU-Sim PTX: Finding immediate dominators for '_Z3md5PhiiiS_'...
GPGPU-Sim PTX: Finding postdominators for '_Z3md5PhiiiS_'...
GPGPU-Sim PTX: Finding immediate postdominators for '_Z3md5PhiiiS_'...
GPGPU-Sim PTX: pre-decoding instructions for '_Z3md5PhiiiS_'...
GPGPU-Sim PTX: reconvergence points for _Z3md5PhiiiS_...
GPGPU-Sim PTX:  1 (potential) branch divergence @  PC=0x190 (_2.ptx:127) @%p1 bra $Lt_1_4866;
GPGPU-Sim PTX:    immediate post dominator      @  PC=0x21f0 (_2.ptx:1283) exit;
GPGPU-Sim PTX:  2 (potential) branch divergence @  PC=0x198 (_2.ptx:128) bra.uni $LBB20__Z3md5PhiiiS_;
GPGPU-Sim PTX:    immediate post dominator      @  PC=0x21f0 (_2.ptx:1283) exit;
GPGPU-Sim PTX:  3 (potential) branch divergence @  PC=0x1f0 (_2.ptx:141) @%p3 bra $Lt_1_5634;
GPGPU-Sim PTX:    immediate post dominator      @  PC=0x290 (_2.ptx:167) shr.s32 %r23, %r15, 31;
GPGPU-Sim PTX:  4 (potential) branch divergence @  PC=0x200 (_2.ptx:143) @!%p2 bra $Lt_1_5378;
GPGPU-Sim PTX:    immediate post dominator      @  PC=0x290 (_2.ptx:167) shr.s32 %r23, %r15, 31;
GPGPU-Sim PTX:  5 (potential) branch divergence @  PC=0x278 (_2.ptx:161) @%p4 bra $Lt_1_6402;
GPGPU-Sim PTX:    immediate post dominator      @  PC=0x280 (_2.ptx:162) bra.uni $Lt_1_5378;
GPGPU-Sim PTX:  6 (potential) branch divergence @  PC=0x280 (_2.ptx:162) bra.uni $Lt_1_5378;
GPGPU-Sim PTX:    immediate post dominator      @  PC=0x290 (_2.ptx:167) shr.s32 %r23, %r15, 31;
GPGPU-Sim PTX:  7 (potential) branch divergence @  PC=0x2d0 (_2.ptx:175) @%p5 bra $Lt_1_8706;
GPGPU-Sim PTX:    immediate post dominator      @  PC=0x2198 (_2.ptx:1270) mul.lo.s32 %r234, %r5, 4;
GPGPU-Sim PTX:  8 (potential) branch divergence @  PC=0x4e8 (_2.ptx:257) @%p6 bra $Lt_1_7938;
GPGPU-Sim PTX:    immediate post dominator      @  PC=0x560 (_2.ptx:281) ld.shared.u8 %r69, [%rd20+0];
GPGPU-Sim PTX:  9 (potential) branch divergence @  PC=0x520 (_2.ptx:267) bra.uni $Lt_1_7682;
GPGPU-Sim PTX:    immediate post dominator      @  PC=0x560 (_2.ptx:281) ld.shared.u8 %r69, [%rd20+0];
GPGPU-Sim PTX: 10 (potential) branch divergence @  PC=0x2180 (_2.ptx:1264) @%p7 bra $Lt_1_7426;
GPGPU-Sim PTX:    immediate post dominator      @  PC=0x2188 (_2.ptx:1265) bra.uni $Lt_1_6914;
GPGPU-Sim PTX: 11 (potential) branch divergence @  PC=0x2188 (_2.ptx:1265) bra.uni $Lt_1_6914;
GPGPU-Sim PTX:    immediate post dominator      @  PC=0x2198 (_2.ptx:1270) mul.lo.s32 %r234, %r5, 4;
GPGPU-Sim PTX: ... end of reconvergence points for _Z3md5PhiiiS_
GPGPU-Sim PTX: ... done pre-decoding instructions for '_Z3md5PhiiiS_'.
GPGPU-Sim PTX: allocating shared region for "__cuda___cuda_local_var_35409_40_non_const_sharedMemory16320" from 0x0 to 0x3f80 (shared memory space)
GPGPU-Sim PTX: instruction assembly for function '_Z11md5_overlapPhiiiiS_'...   done.
GPGPU-Sim PTX: finding reconvergence points for '_Z11md5_overlapPhiiiiS_'...
GPGPU-Sim PTX: Finding dominators for '_Z11md5_overlapPhiiiiS_'...
GPGPU-Sim PTX: Finding immediate dominators for '_Z11md5_overlapPhiiiiS_'...
GPGPU-Sim PTX: Finding postdominators for '_Z11md5_overlapPhiiiiS_'...
GPGPU-Sim PTX: Finding immediate postdominators for '_Z11md5_overlapPhiiiiS_'...
GPGPU-Sim PTX: pre-decoding instructions for '_Z11md5_overlapPhiiiiS_'...
GPGPU-Sim PTX: reconvergence points for _Z11md5_overlapPhiiiiS_...
GPGPU-Sim PTX:  1 (potential) branch divergence @  PC=0x2230 (_2.ptx:1308) @%p1 bra $Lt_2_5634;
GPGPU-Sim PTX:    immediate post dominator      @  PC=0x43e8 (_2.ptx:2510) exit;
GPGPU-Sim PTX:  2 (potential) branch divergence @  PC=0x2238 (_2.ptx:1309) bra.uni $LBB23__Z11md5_overlapPhiiiiS_;
GPGPU-Sim PTX:    immediate post dominator      @  PC=0x43e8 (_2.ptx:2510) exit;
GPGPU-Sim PTX:  3 (potential) branch divergence @  PC=0x22b0 (_2.ptx:1326) @%p3 bra $Lt_2_9730;
GPGPU-Sim PTX:    immediate post dominator      @  PC=0x4390 (_2.ptx:2497) mul.lo.s32 %r260, %r5, 4;
GPGPU-Sim PTX:  4 (potential) branch divergence @  PC=0x2440 (_2.ptx:1378) @%p4 bra $Lt_2_7170;
GPGPU-Sim PTX:    immediate post dominator      @  PC=0x2768 (_2.ptx:1510) ld.shared.u8 %r95, [%rd15+0];
GPGPU-Sim PTX:  5 (potential) branch divergence @  PC=0x2488 (_2.ptx:1387) @%p5 bra $Lt_2_9986;
GPGPU-Sim PTX:    immediate post dominator      @  PC=0x2520 (_2.ptx:1411) mov.s32 %r62, 13;
GPGPU-Sim PTX:  6 (potential) branch divergence @  PC=0x2500 (_2.ptx:1405) @%p6 bra $Lt_2_7938;
GPGPU-Sim PTX:    immediate post dominator      @  PC=0x2508 (_2.ptx:1406) mov.s32 %r61, %r52;
GPGPU-Sim PTX:  7 (potential) branch divergence @  PC=0x2510 (_2.ptx:1407) bra.uni $Lt_2_7426;
GPGPU-Sim PTX:    immediate post dominator      @  PC=0x2520 (_2.ptx:1411) mov.s32 %r62, 13;
GPGPU-Sim PTX:  8 (potential) branch divergence @  PC=0x2540 (_2.ptx:1415) @%p7 bra $Lt_2_8450;
GPGPU-Sim PTX:    immediate post dominator      @  PC=0x25e0 (_2.ptx:1440) mov.u32 %r72, 128;
GPGPU-Sim PTX:  9 (potential) branch divergence @  PC=0x25d8 (_2.ptx:1437) @%p8 bra $Lt_2_8962;
GPGPU-Sim PTX:    immediate post dominator      @  PC=0x25e0 (_2.ptx:1440) mov.u32 %r72, 128;
GPGPU-Sim PTX: 10 (potential) branch divergence @  PC=0x2640 (_2.ptx:1454) bra.uni $Lt_2_6914;
GPGPU-Sim PTX:    immediate post dominator      @  PC=0x2768 (_2.ptx:1510) ld.shared.u8 %r95, [%rd15+0];
GPGPU-Sim PTX: 11 (potential) branch divergence @  PC=0x4378 (_2.ptx:2491) @%p9 bra $Lt_2_6658;
GPGPU-Sim PTX:    immediate post dominator      @  PC=0x4380 (_2.ptx:2492) bra.uni $Lt_2_6146;
GPGPU-Sim PTX: 12 (potential) branch divergence @  PC=0x4380 (_2.ptx:2492) bra.uni $Lt_2_6146;
GPGPU-Sim PTX:    immediate post dominator      @  PC=0x4390 (_2.ptx:2497) mul.lo.s32 %r260, %r5, 4;
GPGPU-Sim PTX: ... end of reconvergence points for _Z11md5_overlapPhiiiiS_
GPGPU-Sim PTX: ... done pre-decoding instructions for '_Z11md5_overlapPhiiiiS_'.
GPGPU-Sim PTX: allocating shared region for "__cuda___cuda_local_var_36258_40_non_const_sharedMemory32608" from 0x0 to 0x3f80 (shared memory space)
GPGPU-Sim PTX: instruction assembly for function '_Z4sha1PhiiiS_'...   done.
GPGPU-Sim PTX: finding reconvergence points for '_Z4sha1PhiiiS_'...
GPGPU-Sim PTX: Finding dominators for '_Z4sha1PhiiiS_'...
GPGPU-Sim PTX: Finding immediate dominators for '_Z4sha1PhiiiS_'...
GPGPU-Sim PTX: Finding postdominators for '_Z4sha1PhiiiS_'...
GPGPU-Sim PTX: Finding immediate postdominators for '_Z4sha1PhiiiS_'...
GPGPU-Sim PTX: pre-decoding instructions for '_Z4sha1PhiiiS_'...
GPGPU-Sim PTX: reconvergence points for _Z4sha1PhiiiS_...
GPGPU-Sim PTX:  1 (potential) branch divergence @  PC=0x4428 (_2.ptx:2534) @%p1 bra $Lt_3_4866;
GPGPU-Sim PTX:    immediate post dominator      @  PC=0x9018 (_2.ptx:5165) exit;
GPGPU-Sim PTX:  2 (potential) branch divergence @  PC=0x4430 (_2.ptx:2535) bra.uni $LBB20__Z4sha1PhiiiS_;
GPGPU-Sim PTX:    immediate post dominator      @  PC=0x9018 (_2.ptx:5165) exit;
GPGPU-Sim PTX:  3 (potential) branch divergence @  PC=0x4488 (_2.ptx:2548) @%p3 bra $Lt_3_5634;
GPGPU-Sim PTX:    immediate post dominator      @  PC=0x4528 (_2.ptx:2574) shr.u32 %r23, %r15, 6;
GPGPU-Sim PTX:  4 (potential) branch divergence @  PC=0x4498 (_2.ptx:2550) @!%p2 bra $Lt_3_5378;
GPGPU-Sim PTX:    immediate post dominator      @  PC=0x4528 (_2.ptx:2574) shr.u32 %r23, %r15, 6;
GPGPU-Sim PTX:  5 (potential) branch divergence @  PC=0x4510 (_2.ptx:2568) @%p4 bra $Lt_3_6402;
GPGPU-Sim PTX:    immediate post dominator      @  PC=0x4518 (_2.ptx:2569) bra.uni $Lt_3_5378;
GPGPU-Sim PTX:  6 (potential) branch divergence @  PC=0x4518 (_2.ptx:2569) bra.uni $Lt_3_5378;
GPGPU-Sim PTX:    immediate post dominator      @  PC=0x4528 (_2.ptx:2574) shr.u32 %r23, %r15, 6;
GPGPU-Sim PTX:  7 (potential) branch divergence @  PC=0x4548 (_2.ptx:2578) @%p5 bra $Lt_3_8706;
GPGPU-Sim PTX:    immediate post dominator      @  PC=0x8fc0 (_2.ptx:5152) mul.lo.s32 %r748, %r5, 4;
GPGPU-Sim PTX:  8 (potential) branch divergence @  PC=0x4730 (_2.ptx:2654) @%p6 bra $Lt_3_7938;
GPGPU-Sim PTX:    immediate post dominator      @  PC=0x4820 (_2.ptx:2693) ld.shared.u8 %r69, [%rd21+3];
GPGPU-Sim PTX:  9 (potential) branch divergence @  PC=0x47e0 (_2.ptx:2679) bra.uni $Lt_3_7682;
GPGPU-Sim PTX:    immediate post dominator      @  PC=0x4820 (_2.ptx:2693) ld.shared.u8 %r69, [%rd21+3];
GPGPU-Sim PTX: 10 (potential) branch divergence @  PC=0x8fa8 (_2.ptx:5146) @%p7 bra $Lt_3_7426;
GPGPU-Sim PTX:    immediate post dominator      @  PC=0x8fb0 (_2.ptx:5147) bra.uni $Lt_3_6914;
GPGPU-Sim PTX: 11 (potential) branch divergence @  PC=0x8fb0 (_2.ptx:5147) bra.uni $Lt_3_6914;
GPGPU-Sim PTX:    immediate post dominator      @  PC=0x8fc0 (_2.ptx:5152) mul.lo.s32 %r748, %r5, 4;
GPGPU-Sim PTX: ... end of reconvergence points for _Z4sha1PhiiiS_
GPGPU-Sim PTX: ... done pre-decoding instructions for '_Z4sha1PhiiiS_'.
GPGPU-Sim PTX: allocating shared region for "__cuda___cuda_local_var_36290_40_non_const_sharedMemory48896" from 0x0 to 0x3f80 (shared memory space)
GPGPU-Sim PTX: instruction assembly for function '_Z12sha1_overlapPhiiiiS_'...   done.
GPGPU-Sim PTX: finding reconvergence points for '_Z12sha1_overlapPhiiiiS_'...
GPGPU-Sim PTX: Finding dominators for '_Z12sha1_overlapPhiiiiS_'...
GPGPU-Sim PTX: Finding immediate dominators for '_Z12sha1_overlapPhiiiiS_'...
GPGPU-Sim PTX: Finding postdominators for '_Z12sha1_overlapPhiiiiS_'...
GPGPU-Sim PTX: Finding immediate postdominators for '_Z12sha1_overlapPhiiiiS_'...
GPGPU-Sim PTX: pre-decoding instructions for '_Z12sha1_overlapPhiiiiS_'...
GPGPU-Sim PTX: reconvergence points for _Z12sha1_overlapPhiiiiS_...
GPGPU-Sim PTX:  1 (potential) branch divergence @  PC=0x9058 (_2.ptx:5190) @%p1 bra $Lt_4_5634;
GPGPU-Sim PTX:    immediate post dominator      @  PC=0xde28 (_2.ptx:7884) exit;
GPGPU-Sim PTX:  2 (potential) branch divergence @  PC=0x9060 (_2.ptx:5191) bra.uni $LBB23__Z12sha1_overlapPhiiiiS_;
GPGPU-Sim PTX:    immediate post dominator      @  PC=0xde28 (_2.ptx:7884) exit;
GPGPU-Sim PTX:  3 (potential) branch divergence @  PC=0x90b8 (_2.ptx:5204) @%p3 bra $Lt_4_9730;
GPGPU-Sim PTX:    immediate post dominator      @  PC=0xddd0 (_2.ptx:7871) mul.lo.s32 %r783, %r5, 4;
GPGPU-Sim PTX:  4 (potential) branch divergence @  PC=0x9288 (_2.ptx:5264) @%p4 bra $Lt_4_7170;
GPGPU-Sim PTX:    immediate post dominator      @  PC=0x9628 (_2.ptx:5411) ld.shared.u8 %r101, [%rd15+3];
GPGPU-Sim PTX:  5 (potential) branch divergence @  PC=0x92d0 (_2.ptx:5273) @%p5 bra $Lt_4_9986;
GPGPU-Sim PTX:    immediate post dominator      @  PC=0x9368 (_2.ptx:5297) mov.s32 %r59, 13;
GPGPU-Sim PTX:  6 (potential) branch divergence @  PC=0x9348 (_2.ptx:5291) @%p6 bra $Lt_4_7938;
GPGPU-Sim PTX:    immediate post dominator      @  PC=0x9350 (_2.ptx:5292) mov.s32 %r58, %r49;
GPGPU-Sim PTX:  7 (potential) branch divergence @  PC=0x9358 (_2.ptx:5293) bra.uni $Lt_4_7426;
GPGPU-Sim PTX:    immediate post dominator      @  PC=0x9368 (_2.ptx:5297) mov.s32 %r59, 13;
GPGPU-Sim PTX:  8 (potential) branch divergence @  PC=0x9388 (_2.ptx:5301) @%p7 bra $Lt_4_8450;
GPGPU-Sim PTX:    immediate post dominator      @  PC=0x9428 (_2.ptx:5326) mov.u32 %r69, 128;
GPGPU-Sim PTX:  9 (potential) branch divergence @  PC=0x9420 (_2.ptx:5323) @%p8 bra $Lt_4_8962;
GPGPU-Sim PTX:    immediate post dominator      @  PC=0x9428 (_2.ptx:5326) mov.u32 %r69, 128;
GPGPU-Sim PTX: 10 (potential) branch divergence @  PC=0x9500 (_2.ptx:5355) bra.uni $Lt_4_6914;
GPGPU-Sim PTX:    immediate post dominator      @  PC=0x9628 (_2.ptx:5411) ld.shared.u8 %r101, [%rd15+3];
GPGPU-Sim PTX: 11 (potential) branch divergence @  PC=0xddb8 (_2.ptx:7865) @%p9 bra $Lt_4_6658;
GPGPU-Sim PTX:    immediate post dominator      @  PC=0xddc0 (_2.ptx:7866) bra.uni $Lt_4_6146;
GPGPU-Sim PTX: 12 (potential) branch divergence @  PC=0xddc0 (_2.ptx:7866) bra.uni $Lt_4_6146;
GPGPU-Sim PTX:    immediate post dominator      @  PC=0xddd0 (_2.ptx:7871) mul.lo.s32 %r783, %r5, 4;
GPGPU-Sim PTX: ... end of reconvergence points for _Z12sha1_overlapPhiiiiS_
GPGPU-Sim PTX: ... done pre-decoding instructions for '_Z12sha1_overlapPhiiiiS_'.
GPGPU-Sim PTX: allocating global region for "md5_padding" from 0x100 to 0x140 (global memory space)
GPGPU-Sim PTX: allocating global region for "sha1_padding" from 0x140 to 0x180 (global memory space)
GPGPU-Sim PTX: finished parsing EMBEDDED .ptx file _2.ptx
Adding _cuobjdump_2.ptx with cubin handle 2
GPGPU-Sim PTX: extracting embedded .ptx to temporary file "_ptx_rDUvsz"
Running: cat _ptx_rDUvsz | sed 's/.version 1.5/.version 1.4/' | sed 's/, texmode_independent//' | sed 's/\(\.extern \.const\[1\] .b8 \w\+\)\[\]/\1\[1\]/' | sed 's/const\[.\]/const\[0\]/g' > _ptx2_09IHPN
GPGPU-Sim PTX: generating ptxinfo using "$CUDA_INSTALL_PATH/bin/ptxas --gpu-name=sm_20 -v _ptx2_09IHPN --output-file  /dev/null 2> _ptx_rDUvszinfo"
GPGPU-Sim PTX: Kernel '_Z12sha1_overlapPhiiiiS_' : regs=47, lmem=0, smem=16256, cmem=80
GPGPU-Sim PTX: Kernel '_Z4sha1PhiiiS_' : regs=45, lmem=0, smem=16256, cmem=80
GPGPU-Sim PTX: Kernel '_Z11md5_overlapPhiiiiS_' : regs=42, lmem=0, smem=16256, cmem=80
GPGPU-Sim PTX: Kernel '_Z3md5PhiiiS_' : regs=42, lmem=0, smem=16256, cmem=80
GPGPU-Sim PTX: removing ptxinfo using "rm -f _ptx_rDUvsz _ptx2_09IHPN _ptx_rDUvszinfo"
GPGPU-Sim PTX: loading globals with explicit initializers... 
GPGPU-Sim PTX:     initializing 'md5_padding' ...  wrote 64 bytes
GPGPU-Sim PTX:     initializing 'sha1_padding' ...  wrote 64 bytes
GPGPU-Sim PTX: finished loading globals (128 bytes total).
GPGPU-Sim PTX: loading constants with explicit initializers...  done.
GPGPU-Sim PTX: __cudaRegisterFunction _Z4sha1PhiiiS_ : hostFun 0x0x40d81a, fat_cubin_handle = 2
GPGPU-Sim PTX: __cudaRegisterFunction _Z11md5_overlapPhiiiiS_ : hostFun 0x0x40d6ef, fat_cubin_handle = 2
GPGPU-Sim PTX: __cudaRegisterFunction _Z3md5PhiiiS_ : hostFun 0x0x40d5a4, fat_cubin_handle = 2
GPGPU-Sim PTX: __cudaRegisterVar: hostVar = 0x66b420; deviceAddress = md5_padding; deviceName = md5_padding
GPGPU-Sim PTX: __cudaRegisterVar: Registering const memory space of 64 bytes
GPGPU-Sim PTX registering global md5_padding hostVar to name mapping
GPGPU-Sim PTX: __cudaRegisterVar: hostVar = 0x66b460; deviceAddress = sha1_padding; deviceName = sha1_padding
GPGPU-Sim PTX: __cudaRegisterVar: Registering const memory space of 64 bytes
GPGPU-Sim PTX registering global sha1_padding hostVar to name mapping
Shared Memory Enabled
Pinned Memory Enabled
Reduced Hash Size Enabled
Running SHA1 Overlap Test..
SHA1 Overlap Test


== GPU Execution Context ==
Threads       : 128
Blocks        : 384
Total Threads : 49152
Total size    : 196656
Chunk Size    : 52
Padding       : 0


GPGPU-Sim PTX: cudaLaunch for 0x0x40d965 (mode=performance simulation) on stream 0
GPGPU-Sim PTX: pushing kernel '_Z12sha1_overlapPhiiiiS_' to stream 0, gridDim= (384,1,1) blockDim = (128,1,1) 
kernel '_Z12sha1_overlapPhiiiiS_' transfer to GPU hardware scheduler
GPGPU-Sim uArch: Shader 1 bind to kernel 1 '_Z12sha1_overlapPhiiiiS_'
GPGPU-Sim uArch: CTA/core = 3, limited by: shmem
GPGPU-Sim uArch: core:  1, cta: 0 initialized @(1,0)
GPGPU-Sim uArch: Shader 2 bind to kernel 1 '_Z12sha1_overlapPhiiiiS_'
GPGPU-Sim uArch: core:  2, cta: 0 initialized @(1,0)
GPGPU-Sim uArch: Shader 3 bind to kernel 1 '_Z12sha1_overlapPhiiiiS_'
GPGPU-Sim uArch: core:  3, cta: 0 initialized @(1,0)
GPGPU-Sim uArch: Shader 4 bind to kernel 1 '_Z12sha1_overlapPhiiiiS_'
GPGPU-Sim uArch: core:  4, cta: 0 initialized @(1,0)
GPGPU-Sim uArch: Shader 5 bind to kernel 1 '_Z12sha1_overlapPhiiiiS_'
GPGPU-Sim uArch: core:  5, cta: 0 initialized @(1,0)
GPGPU-Sim uArch: Shader 6 bind to kernel 1 '_Z12sha1_overlapPhiiiiS_'
GPGPU-Sim uArch: core:  6, cta: 0 initialized @(1,0)
GPGPU-Sim uArch: Shader 7 bind to kernel 1 '_Z12sha1_overlapPhiiiiS_'
GPGPU-Sim uArch: core:  7, cta: 0 initialized @(1,0)
GPGPU-Sim uArch: Shader 8 bind to kernel 1 '_Z12sha1_overlapPhiiiiS_'
GPGPU-Sim uArch: core:  8, cta: 0 initialized @(1,0)
GPGPU-Sim uArch: Shader 9 bind to kernel 1 '_Z12sha1_overlapPhiiiiS_'
GPGPU-Sim uArch: core:  9, cta: 0 initialized @(1,0)
GPGPU-Sim uArch: Shader 10 bind to kernel 1 '_Z12sha1_overlapPhiiiiS_'
GPGPU-Sim uArch: core: 10, cta: 0 initialized @(1,0)
GPGPU-Sim uArch: Shader 11 bind to kernel 1 '_Z12sha1_overlapPhiiiiS_'
GPGPU-Sim uArch: core: 11, cta: 0 initialized @(1,0)
GPGPU-Sim uArch: Shader 12 bind to kernel 1 '_Z12sha1_overlapPhiiiiS_'
GPGPU-Sim uArch: core: 12, cta: 0 initialized @(1,0)
GPGPU-Sim uArch: Shader 13 bind to kernel 1 '_Z12sha1_overlapPhiiiiS_'
GPGPU-Sim uArch: core: 13, cta: 0 initialized @(1,0)
GPGPU-Sim uArch: Shader 14 bind to kernel 1 '_Z12sha1_overlapPhiiiiS_'
GPGPU-Sim uArch: core: 14, cta: 0 initialized @(1,0)
GPGPU-Sim uArch: Shader 0 bind to kernel 1 '_Z12sha1_overlapPhiiiiS_'
GPGPU-Sim uArch: core:  0, cta: 0 initialized @(1,0)
GPGPU-Sim uArch: core:  1, cta: 1 initialized @(2,0)
GPGPU-Sim uArch: core:  2, cta: 1 initialized @(2,0)
GPGPU-Sim uArch: core:  3, cta: 1 initialized @(2,0)
GPGPU-Sim uArch: core:  4, cta: 1 initialized @(2,0)
GPGPU-Sim uArch: core:  5, cta: 1 initialized @(2,0)
GPGPU-Sim uArch: core:  6, cta: 1 initialized @(2,0)
GPGPU-Sim uArch: core:  7, cta: 1 initialized @(2,0)
GPGPU-Sim uArch: core:  8, cta: 1 initialized @(2,0)
GPGPU-Sim uArch: core:  9, cta: 1 initialized @(2,0)
GPGPU-Sim uArch: core: 10, cta: 1 initialized @(2,0)
GPGPU-Sim uArch: core: 11, cta: 1 initialized @(2,0)
GPGPU-Sim uArch: core: 12, cta: 1 initialized @(2,0)
GPGPU-Sim uArch: core: 13, cta: 1 initialized @(2,0)
GPGPU-Sim uArch: core: 14, cta: 1 initialized @(2,0)
GPGPU-Sim uArch: core:  0, cta: 1 initialized @(2,0)
GPGPU-Sim uArch: core:  1, cta: 2 initialized @(3,0)
GPGPU-Sim uArch: core:  2, cta: 2 initialized @(3,0)
GPGPU-Sim uArch: core:  3, cta: 2 initialized @(3,0)
GPGPU-Sim uArch: core:  4, cta: 2 initialized @(3,0)
GPGPU-Sim uArch: core:  5, cta: 2 initialized @(3,0)
GPGPU-Sim uArch: core:  6, cta: 2 initialized @(3,0)
GPGPU-Sim uArch: core:  7, cta: 2 initialized @(3,0)
GPGPU-Sim uArch: core:  8, cta: 2 initialized @(3,0)
GPGPU-Sim uArch: core:  9, cta: 2 initialized @(3,0)
GPGPU-Sim uArch: core: 10, cta: 2 initialized @(3,0)
GPGPU-Sim uArch: core: 11, cta: 2 initialized @(3,0)
GPGPU-Sim uArch: core: 12, cta: 2 initialized @(3,0)
GPGPU-Sim uArch: core: 13, cta: 2 initialized @(3,0)
GPGPU-Sim uArch: core: 14, cta: 2 initialized @(3,0)
GPGPU-Sim uArch: core:  0, cta: 2 initialized @(3,0)
GPGPU-Sim uArch: cycles simulated: 500  inst.: 28800 (ipc=57.6) sim_rate=14400 (inst/sec) elapsed = 0:0:00:02 / Tue Apr 16 16:54:33 2019
GPGPU-Sim PTX: 100000 instructions simulated : ctaid=(41,0,0) tid=(31,0,0)
GPGPU-Sim PTX: 200000 instructions simulated : ctaid=(13,0,0) tid=(63,0,0)
GPGPU-Sim uArch: cycles simulated: 1500  inst.: 247680 (ipc=165.1) sim_rate=82560 (inst/sec) elapsed = 0:0:00:03 / Tue Apr 16 16:54:34 2019
GPGPU-Sim PTX: 300000 instructions simulated : ctaid=(36,0,0) tid=(95,0,0)
GPGPU-Sim PTX: 400000 instructions simulated : ctaid=(6,0,0) tid=(95,0,0)
GPGPU-Sim uArch: cycles simulated: 2500  inst.: 483840 (ipc=193.5) sim_rate=120960 (inst/sec) elapsed = 0:0:00:04 / Tue Apr 16 16:54:35 2019
GPGPU-Sim PTX: 500000 instructions simulated : ctaid=(2,0,0) tid=(63,0,0)
GPGPU-Sim PTX: 600000 instructions simulated : ctaid=(42,0,0) tid=(31,0,0)
GPGPU-Sim PTX: 700000 instructions simulated : ctaid=(37,0,0) tid=(31,0,0)
GPGPU-Sim PTX: 800000 instructions simulated : ctaid=(26,0,0) tid=(63,0,0)
GPGPU-Sim uArch: cycles simulated: 4000  inst.: 813504 (ipc=203.4) sim_rate=162700 (inst/sec) elapsed = 0:0:00:05 / Tue Apr 16 16:54:36 2019
GPGPU-Sim PTX: 900000 instructions simulated : ctaid=(29,0,0) tid=(127,0,0)
GPGPU-Sim PTX: 1000000 instructions simulated : ctaid=(11,0,0) tid=(31,0,0)
GPGPU-Sim PTX: 1100000 instructions simulated : ctaid=(15,0,0) tid=(95,0,0)
GPGPU-Sim uArch: cycles simulated: 5000  inst.: 1090464 (ipc=218.1) sim_rate=181744 (inst/sec) elapsed = 0:0:00:06 / Tue Apr 16 16:54:37 2019
GPGPU-Sim PTX: 1200000 instructions simulated : ctaid=(18,0,0) tid=(63,0,0)
GPGPU-Sim PTX: 1300000 instructions simulated : ctaid=(42,0,0) tid=(31,0,0)
GPGPU-Sim uArch: cycles simulated: 6000  inst.: 1332096 (ipc=222.0) sim_rate=190299 (inst/sec) elapsed = 0:0:00:07 / Tue Apr 16 16:54:38 2019
GPGPU-Sim PTX: 1400000 instructions simulated : ctaid=(9,0,0) tid=(63,0,0)
GPGPU-Sim PTX: 1500000 instructions simulated : ctaid=(34,0,0) tid=(95,0,0)
GPGPU-Sim PTX: 1600000 instructions simulated : ctaid=(44,0,0) tid=(31,0,0)
GPGPU-Sim PTX: 1700000 instructions simulated : ctaid=(4,0,0) tid=(31,0,0)
GPGPU-Sim PTX: 1800000 instructions simulated : ctaid=(31,0,0) tid=(127,0,0)
GPGPU-Sim uArch: cycles simulated: 7500  inst.: 1817312 (ipc=242.3) sim_rate=227164 (inst/sec) elapsed = 0:0:00:08 / Tue Apr 16 16:54:39 2019
GPGPU-Sim PTX: 1900000 instructions simulated : ctaid=(30,0,0) tid=(63,0,0)
GPGPU-Sim PTX: 2000000 instructions simulated : ctaid=(39,0,0) tid=(63,0,0)
GPGPU-Sim PTX: 2100000 instructions simulated : ctaid=(7,0,0) tid=(31,0,0)
GPGPU-Sim uArch: cycles simulated: 8500  inst.: 2090880 (ipc=246.0) sim_rate=232320 (inst/sec) elapsed = 0:0:00:09 / Tue Apr 16 16:54:40 2019
GPGPU-Sim PTX: 2200000 instructions simulated : ctaid=(21,0,0) tid=(95,0,0)
GPGPU-Sim PTX: 2300000 instructions simulated : ctaid=(8,0,0) tid=(127,0,0)
GPGPU-Sim uArch: cycles simulated: 9500  inst.: 2367360 (ipc=249.2) sim_rate=236736 (inst/sec) elapsed = 0:0:00:10 / Tue Apr 16 16:54:41 2019
GPGPU-Sim PTX: 2400000 instructions simulated : ctaid=(11,0,0) tid=(95,0,0)
GPGPU-Sim PTX: 2500000 instructions simulated : ctaid=(5,0,0) tid=(127,0,0)
GPGPU-Sim PTX: 2600000 instructions simulated : ctaid=(19,0,0) tid=(95,0,0)
GPGPU-Sim uArch: cycles simulated: 10500  inst.: 2643840 (ipc=251.8) sim_rate=240349 (inst/sec) elapsed = 0:0:00:11 / Tue Apr 16 16:54:42 2019
GPGPU-Sim PTX: 2700000 instructions simulated : ctaid=(6,0,0) tid=(63,0,0)
GPGPU-Sim PTX: 2800000 instructions simulated : ctaid=(43,0,0) tid=(95,0,0)
GPGPU-Sim PTX: 2900000 instructions simulated : ctaid=(20,0,0) tid=(31,0,0)
GPGPU-Sim PTX: 3000000 instructions simulated : ctaid=(29,0,0) tid=(63,0,0)
GPGPU-Sim uArch: cycles simulated: 12000  inst.: 3012480 (ipc=251.0) sim_rate=251040 (inst/sec) elapsed = 0:0:00:12 / Tue Apr 16 16:54:43 2019
GPGPU-Sim PTX: 3100000 instructions simulated : ctaid=(35,0,0) tid=(31,0,0)
GPGPU-Sim PTX: 3200000 instructions simulated : ctaid=(17,0,0) tid=(95,0,0)
GPGPU-Sim PTX: 3300000 instructions simulated : ctaid=(6,0,0) tid=(63,0,0)
GPGPU-Sim PTX: 3400000 instructions simulated : ctaid=(31,0,0) tid=(31,0,0)
GPGPU-Sim uArch: cycles simulated: 13500  inst.: 3390208 (ipc=251.1) sim_rate=260785 (inst/sec) elapsed = 0:0:00:13 / Tue Apr 16 16:54:44 2019
GPGPU-Sim PTX: 3500000 instructions simulated : ctaid=(20,0,0) tid=(31,0,0)
GPGPU-Sim PTX: 3600000 instructions simulated : ctaid=(8,0,0) tid=(127,0,0)
GPGPU-Sim uArch: cycles simulated: 14500  inst.: 3657600 (ipc=252.2) sim_rate=261257 (inst/sec) elapsed = 0:0:00:14 / Tue Apr 16 16:54:45 2019
GPGPU-Sim PTX: 3700000 instructions simulated : ctaid=(5,0,0) tid=(31,0,0)
GPGPU-Sim PTX: 3800000 instructions simulated : ctaid=(30,0,0) tid=(63,0,0)
GPGPU-Sim PTX: 3900000 instructions simulated : ctaid=(20,0,0) tid=(95,0,0)
GPGPU-Sim PTX: 4000000 instructions simulated : ctaid=(26,0,0) tid=(127,0,0)
GPGPU-Sim uArch: cycles simulated: 16000  inst.: 4034784 (ipc=252.2) sim_rate=268985 (inst/sec) elapsed = 0:0:00:15 / Tue Apr 16 16:54:46 2019
GPGPU-Sim PTX: 4100000 instructions simulated : ctaid=(12,0,0) tid=(127,0,0)
GPGPU-Sim PTX: 4200000 instructions simulated : ctaid=(3,0,0) tid=(31,0,0)
GPGPU-Sim PTX: 4300000 instructions simulated : ctaid=(7,0,0) tid=(95,0,0)
GPGPU-Sim PTX: 4400000 instructions simulated : ctaid=(35,0,0) tid=(63,0,0)
GPGPU-Sim PTX: 4500000 instructions simulated : ctaid=(38,0,0) tid=(127,0,0)
GPGPU-Sim uArch: cycles simulated: 17500  inst.: 4476224 (ipc=255.8) sim_rate=279764 (inst/sec) elapsed = 0:0:00:16 / Tue Apr 16 16:54:47 2019
GPGPU-Sim PTX: 4600000 instructions simulated : ctaid=(43,0,0) tid=(31,0,0)
GPGPU-Sim PTX: 4700000 instructions simulated : ctaid=(23,0,0) tid=(31,0,0)
GPGPU-Sim uArch: cycles simulated: 18500  inst.: 4722496 (ipc=255.3) sim_rate=277793 (inst/sec) elapsed = 0:0:00:17 / Tue Apr 16 16:54:48 2019
GPGPU-Sim PTX: 4800000 instructions simulated : ctaid=(26,0,0) tid=(127,0,0)
GPGPU-Sim PTX: 4900000 instructions simulated : ctaid=(9,0,0) tid=(127,0,0)
GPGPU-Sim PTX: 5000000 instructions simulated : ctaid=(33,0,0) tid=(95,0,0)
GPGPU-Sim PTX: 5100000 instructions simulated : ctaid=(38,0,0) tid=(31,0,0)
GPGPU-Sim uArch: cycles simulated: 20000  inst.: 5132032 (ipc=256.6) sim_rate=285112 (inst/sec) elapsed = 0:0:00:18 / Tue Apr 16 16:54:49 2019
GPGPU-Sim PTX: 5200000 instructions simulated : ctaid=(41,0,0) tid=(31,0,0)
GPGPU-Sim PTX: 5300000 instructions simulated : ctaid=(15,0,0) tid=(127,0,0)
GPGPU-Sim PTX: 5400000 instructions simulated : ctaid=(33,0,0) tid=(63,0,0)
GPGPU-Sim PTX: 5500000 instructions simulated : ctaid=(41,0,0) tid=(127,0,0)
GPGPU-Sim PTX: 5600000 instructions simulated : ctaid=(40,0,0) tid=(63,0,0)
GPGPU-Sim uArch: cycles simulated: 22000  inst.: 5637792 (ipc=256.3) sim_rate=296725 (inst/sec) elapsed = 0:0:00:19 / Tue Apr 16 16:54:50 2019
GPGPU-Sim PTX: 5700000 instructions simulated : ctaid=(44,0,0) tid=(63,0,0)
GPGPU-Sim PTX: 5800000 instructions simulated : ctaid=(36,0,0) tid=(127,0,0)
GPGPU-Sim uArch: cycles simulated: 22500  inst.: 5777280 (ipc=256.8) sim_rate=288864 (inst/sec) elapsed = 0:0:00:20 / Tue Apr 16 16:54:51 2019
GPGPU-Sim PTX: 5900000 instructions simulated : ctaid=(8,0,0) tid=(63,0,0)
GPGPU-Sim PTX: 6000000 instructions simulated : ctaid=(19,0,0) tid=(95,0,0)
GPGPU-Sim PTX: 6100000 instructions simulated : ctaid=(13,0,0) tid=(63,0,0)
GPGPU-Sim uArch: cycles simulated: 24000  inst.: 6145920 (ipc=256.1) sim_rate=292662 (inst/sec) elapsed = 0:0:00:21 / Tue Apr 16 16:54:52 2019
GPGPU-Sim PTX: 6200000 instructions simulated : ctaid=(27,0,0) tid=(63,0,0)
GPGPU-Sim PTX: 6300000 instructions simulated : ctaid=(12,0,0) tid=(63,0,0)
GPGPU-Sim PTX: 6400000 instructions simulated : ctaid=(5,0,0) tid=(31,0,0)
GPGPU-Sim PTX: 6500000 instructions simulated : ctaid=(15,0,0) tid=(127,0,0)
GPGPU-Sim uArch: cycles simulated: 25500  inst.: 6546080 (ipc=256.7) sim_rate=297549 (inst/sec) elapsed = 0:0:00:22 / Tue Apr 16 16:54:53 2019
GPGPU-Sim PTX: 6600000 instructions simulated : ctaid=(24,0,0) tid=(95,0,0)
GPGPU-Sim PTX: 6700000 instructions simulated : ctaid=(7,0,0) tid=(31,0,0)
GPGPU-Sim PTX: 6800000 instructions simulated : ctaid=(22,0,0) tid=(95,0,0)
GPGPU-Sim PTX: 6900000 instructions simulated : ctaid=(22,0,0) tid=(95,0,0)
GPGPU-Sim uArch: cycles simulated: 27000  inst.: 6973824 (ipc=258.3) sim_rate=303209 (inst/sec) elapsed = 0:0:00:23 / Tue Apr 16 16:54:54 2019
GPGPU-Sim PTX: 7000000 instructions simulated : ctaid=(20,0,0) tid=(31,0,0)
GPGPU-Sim PTX: 7100000 instructions simulated : ctaid=(26,0,0) tid=(127,0,0)
GPGPU-Sim PTX: 7200000 instructions simulated : ctaid=(11,0,0) tid=(127,0,0)
GPGPU-Sim uArch: cycles simulated: 28000  inst.: 7242560 (ipc=258.7) sim_rate=301773 (inst/sec) elapsed = 0:0:00:24 / Tue Apr 16 16:54:55 2019
GPGPU-Sim PTX: 7300000 instructions simulated : ctaid=(24,0,0) tid=(63,0,0)
GPGPU-Sim PTX: 7400000 instructions simulated : ctaid=(24,0,0) tid=(31,0,0)
GPGPU-Sim PTX: 7500000 instructions simulated : ctaid=(7,0,0) tid=(31,0,0)
GPGPU-Sim PTX: 7600000 instructions simulated : ctaid=(0,0,0) tid=(127,0,0)
GPGPU-Sim uArch: cycles simulated: 29500  inst.: 7620480 (ipc=258.3) sim_rate=304819 (inst/sec) elapsed = 0:0:00:25 / Tue Apr 16 16:54:56 2019
GPGPU-Sim PTX: 7700000 instructions simulated : ctaid=(44,0,0) tid=(95,0,0)
GPGPU-Sim PTX: 7800000 instructions simulated : ctaid=(5,0,0) tid=(127,0,0)
GPGPU-Sim PTX: 7900000 instructions simulated : ctaid=(13,0,0) tid=(31,0,0)
GPGPU-Sim PTX: 8000000 instructions simulated : ctaid=(16,0,0) tid=(95,0,0)
GPGPU-Sim uArch: cycles simulated: 31000  inst.: 7989120 (ipc=257.7) sim_rate=307273 (inst/sec) elapsed = 0:0:00:26 / Tue Apr 16 16:54:57 2019
GPGPU-Sim PTX: 8100000 instructions simulated : ctaid=(41,0,0) tid=(127,0,0)
GPGPU-Sim PTX: 8200000 instructions simulated : ctaid=(5,0,0) tid=(31,0,0)
GPGPU-Sim PTX: 8300000 instructions simulated : ctaid=(10,0,0) tid=(95,0,0)
GPGPU-Sim PTX: 8400000 instructions simulated : ctaid=(27,0,0) tid=(127,0,0)
GPGPU-Sim uArch: cycles simulated: 32500  inst.: 8383072 (ipc=257.9) sim_rate=310484 (inst/sec) elapsed = 0:0:00:27 / Tue Apr 16 16:54:58 2019
GPGPU-Sim PTX: 8500000 instructions simulated : ctaid=(22,0,0) tid=(63,0,0)
GPGPU-Sim PTX: 8600000 instructions simulated : ctaid=(25,0,0) tid=(31,0,0)
GPGPU-Sim PTX: 8700000 instructions simulated : ctaid=(23,0,0) tid=(31,0,0)
GPGPU-Sim PTX: 8800000 instructions simulated : ctaid=(35,0,0) tid=(127,0,0)
GPGPU-Sim uArch: cycles simulated: 34000  inst.: 8807136 (ipc=259.0) sim_rate=314540 (inst/sec) elapsed = 0:0:00:28 / Tue Apr 16 16:54:59 2019
GPGPU-Sim PTX: 8900000 instructions simulated : ctaid=(6,0,0) tid=(127,0,0)
GPGPU-Sim PTX: 9000000 instructions simulated : ctaid=(6,0,0) tid=(127,0,0)
GPGPU-Sim PTX: 9100000 instructions simulated : ctaid=(20,0,0) tid=(31,0,0)
GPGPU-Sim PTX: 9200000 instructions simulated : ctaid=(2,0,0) tid=(127,0,0)
GPGPU-Sim uArch: cycles simulated: 35500  inst.: 9187200 (ipc=258.8) sim_rate=316800 (inst/sec) elapsed = 0:0:00:29 / Tue Apr 16 16:55:00 2019
GPGPU-Sim PTX: 9300000 instructions simulated : ctaid=(17,0,0) tid=(127,0,0)
GPGPU-Sim PTX: 9400000 instructions simulated : ctaid=(42,0,0) tid=(63,0,0)
GPGPU-Sim PTX: 9500000 instructions simulated : ctaid=(23,0,0) tid=(95,0,0)
GPGPU-Sim uArch: cycles simulated: 37000  inst.: 9555840 (ipc=258.3) sim_rate=318528 (inst/sec) elapsed = 0:0:00:30 / Tue Apr 16 16:55:01 2019
GPGPU-Sim PTX: 9600000 instructions simulated : ctaid=(5,0,0) tid=(95,0,0)
GPGPU-Sim PTX: 9700000 instructions simulated : ctaid=(26,0,0) tid=(127,0,0)
GPGPU-Sim PTX: 9800000 instructions simulated : ctaid=(10,0,0) tid=(31,0,0)
GPGPU-Sim PTX: 9900000 instructions simulated : ctaid=(28,0,0) tid=(63,0,0)
GPGPU-Sim uArch: cycles simulated: 38500  inst.: 9937568 (ipc=258.1) sim_rate=320566 (inst/sec) elapsed = 0:0:00:31 / Tue Apr 16 16:55:02 2019
GPGPU-Sim PTX: 10000000 instructions simulated : ctaid=(14,0,0) tid=(127,0,0)
GPGPU-Sim PTX: 10100000 instructions simulated : ctaid=(5,0,0) tid=(127,0,0)
GPGPU-Sim PTX: 10200000 instructions simulated : ctaid=(30,0,0) tid=(127,0,0)
GPGPU-Sim uArch: cycles simulated: 39500  inst.: 10200960 (ipc=258.3) sim_rate=318780 (inst/sec) elapsed = 0:0:00:32 / Tue Apr 16 16:55:03 2019
GPGPU-Sim PTX: 10300000 instructions simulated : ctaid=(35,0,0) tid=(95,0,0)
GPGPU-Sim PTX: 10400000 instructions simulated : ctaid=(21,0,0) tid=(31,0,0)
GPGPU-Sim PTX: 10500000 instructions simulated : ctaid=(36,0,0) tid=(127,0,0)
GPGPU-Sim PTX: 10600000 instructions simulated : ctaid=(9,0,0) tid=(127,0,0)
GPGPU-Sim uArch: cycles simulated: 41000  inst.: 10591936 (ipc=258.3) sim_rate=320967 (inst/sec) elapsed = 0:0:00:33 / Tue Apr 16 16:55:04 2019
GPGPU-Sim PTX: 10700000 instructions simulated : ctaid=(39,0,0) tid=(63,0,0)
GPGPU-Sim PTX: 10800000 instructions simulated : ctaid=(3,0,0) tid=(127,0,0)
GPGPU-Sim PTX: 10900000 instructions simulated : ctaid=(28,0,0) tid=(95,0,0)
GPGPU-Sim PTX: 11000000 instructions simulated : ctaid=(9,0,0) tid=(63,0,0)
GPGPU-Sim uArch: cycles simulated: 42500  inst.: 11013792 (ipc=259.1) sim_rate=323935 (inst/sec) elapsed = 0:0:00:34 / Tue Apr 16 16:55:05 2019
GPGPU-Sim PTX: 11100000 instructions simulated : ctaid=(32,0,0) tid=(127,0,0)
GPGPU-Sim PTX: 11200000 instructions simulated : ctaid=(21,0,0) tid=(95,0,0)
GPGPU-Sim uArch: cycles simulated: 43500  inst.: 11233216 (ipc=258.2) sim_rate=312033 (inst/sec) elapsed = 0:0:00:36 / Tue Apr 16 16:55:07 2019
GPGPU-Sim PTX: 11300000 instructions simulated : ctaid=(43,0,0) tid=(31,0,0)
GPGPU-Sim PTX: 11400000 instructions simulated : ctaid=(6,0,0) tid=(95,0,0)
GPGPU-Sim PTX: 11500000 instructions simulated : ctaid=(22,0,0) tid=(127,0,0)
GPGPU-Sim PTX: 11600000 instructions simulated : ctaid=(31,0,0) tid=(127,0,0)
GPGPU-Sim uArch: cycles simulated: 45000  inst.: 11659136 (ipc=259.1) sim_rate=315111 (inst/sec) elapsed = 0:0:00:37 / Tue Apr 16 16:55:08 2019
GPGPU-Sim PTX: 11700000 instructions simulated : ctaid=(27,0,0) tid=(63,0,0)
GPGPU-Sim PTX: 11800000 instructions simulated : ctaid=(41,0,0) tid=(127,0,0)
GPGPU-Sim PTX: 11900000 instructions simulated : ctaid=(11,0,0) tid=(63,0,0)
GPGPU-Sim PTX: 12000000 instructions simulated : ctaid=(37,0,0) tid=(63,0,0)
GPGPU-Sim uArch: cycles simulated: 46500  inst.: 12044128 (ipc=259.0) sim_rate=316950 (inst/sec) elapsed = 0:0:00:38 / Tue Apr 16 16:55:09 2019
GPGPU-Sim PTX: 12100000 instructions simulated : ctaid=(26,0,0) tid=(63,0,0)
GPGPU-Sim PTX: 12200000 instructions simulated : ctaid=(38,0,0) tid=(31,0,0)
GPGPU-Sim PTX: 12300000 instructions simulated : ctaid=(19,0,0) tid=(63,0,0)
GPGPU-Sim PTX: 12400000 instructions simulated : ctaid=(31,0,0) tid=(31,0,0)
GPGPU-Sim uArch: cycles simulated: 48000  inst.: 12412800 (ipc=258.6) sim_rate=318276 (inst/sec) elapsed = 0:0:00:39 / Tue Apr 16 16:55:10 2019
GPGPU-Sim PTX: 12500000 instructions simulated : ctaid=(14,0,0) tid=(63,0,0)
GPGPU-Sim PTX: 12600000 instructions simulated : ctaid=(6,0,0) tid=(31,0,0)
GPGPU-Sim PTX: 12700000 instructions simulated : ctaid=(5,0,0) tid=(127,0,0)
GPGPU-Sim PTX: 12800000 instructions simulated : ctaid=(44,0,0) tid=(63,0,0)
GPGPU-Sim uArch: cycles simulated: 49500  inst.: 12802432 (ipc=258.6) sim_rate=320060 (inst/sec) elapsed = 0:0:00:40 / Tue Apr 16 16:55:11 2019
GPGPU-Sim PTX: 12900000 instructions simulated : ctaid=(0,0,0) tid=(31,0,0)
GPGPU-Sim PTX: 13000000 instructions simulated : ctaid=(26,0,0) tid=(31,0,0)
GPGPU-Sim PTX: 13100000 instructions simulated : ctaid=(0,0,0) tid=(31,0,0)
GPGPU-Sim PTX: 13200000 instructions simulated : ctaid=(11,0,0) tid=(127,0,0)
GPGPU-Sim uArch: cycles simulated: 51000  inst.: 13233696 (ipc=259.5) sim_rate=322773 (inst/sec) elapsed = 0:0:00:41 / Tue Apr 16 16:55:12 2019
GPGPU-Sim PTX: 13300000 instructions simulated : ctaid=(1,0,0) tid=(63,0,0)
GPGPU-Sim PTX: 13400000 instructions simulated : ctaid=(8,0,0) tid=(95,0,0)
GPGPU-Sim PTX: 13500000 instructions simulated : ctaid=(1,0,0) tid=(31,0,0)
GPGPU-Sim PTX: 13600000 instructions simulated : ctaid=(7,0,0) tid=(63,0,0)
GPGPU-Sim uArch: cycles simulated: 52500  inst.: 13610880 (ipc=259.3) sim_rate=324068 (inst/sec) elapsed = 0:0:00:42 / Tue Apr 16 16:55:13 2019
GPGPU-Sim PTX: 13700000 instructions simulated : ctaid=(35,0,0) tid=(63,0,0)
GPGPU-Sim PTX: 13800000 instructions simulated : ctaid=(22,0,0) tid=(31,0,0)
GPGPU-Sim PTX: 13900000 instructions simulated : ctaid=(32,0,0) tid=(95,0,0)
GPGPU-Sim PTX: 14000000 instructions simulated : ctaid=(14,0,0) tid=(63,0,0)
GPGPU-Sim uArch: cycles simulated: 54000  inst.: 13979520 (ipc=258.9) sim_rate=325105 (inst/sec) elapsed = 0:0:00:43 / Tue Apr 16 16:55:14 2019
GPGPU-Sim PTX: 14100000 instructions simulated : ctaid=(15,0,0) tid=(127,0,0)
GPGPU-Sim PTX: 14200000 instructions simulated : ctaid=(0,0,0) tid=(31,0,0)
GPGPU-Sim PTX: 14300000 instructions simulated : ctaid=(42,0,0) tid=(63,0,0)
GPGPU-Sim uArch: cycles simulated: 55500  inst.: 14371392 (ipc=258.9) sim_rate=326622 (inst/sec) elapsed = 0:0:00:44 / Tue Apr 16 16:55:15 2019
GPGPU-Sim PTX: 14400000 instructions simulated : ctaid=(4,0,0) tid=(127,0,0)
GPGPU-Sim PTX: 14500000 instructions simulated : ctaid=(14,0,0) tid=(63,0,0)
GPGPU-Sim PTX: 14600000 instructions simulated : ctaid=(3,0,0) tid=(63,0,0)
GPGPU-Sim PTX: 14700000 instructions simulated : ctaid=(10,0,0) tid=(63,0,0)
GPGPU-Sim uArch: cycles simulated: 57000  inst.: 14713152 (ipc=258.1) sim_rate=326958 (inst/sec) elapsed = 0:0:00:45 / Tue Apr 16 16:55:16 2019
GPGPU-Sim uArch: Shader 2 finished CTA #0 (57535,0), 2 CTAs running
GPGPU-Sim uArch: Shader 9 finished CTA #0 (57535,0), 2 CTAs running
GPGPU-Sim uArch: core:  2, cta: 0 initialized @(57536,0)
GPGPU-Sim uArch: core:  9, cta: 0 initialized @(57536,0)
GPGPU-Sim uArch: Shader 10 finished CTA #0 (57584,0), 2 CTAs running
GPGPU-Sim uArch: core: 10, cta: 0 initialized @(57585,0)
GPGPU-Sim uArch: Shader 4 finished CTA #0 (57632,0), 2 CTAs running
GPGPU-Sim uArch: core:  4, cta: 0 initialized @(57633,0)
GPGPU-Sim uArch: Shader 9 finished CTA #1 (57634,0), 2 CTAs running
GPGPU-Sim uArch: Shader 14 finished CTA #0 (57634,0), 2 CTAs running
GPGPU-Sim uArch: core:  9, cta: 1 initialized @(57635,0)
GPGPU-Sim uArch: core: 14, cta: 0 initialized @(57635,0)
GPGPU-Sim uArch: Shader 12 finished CTA #0 (57637,0), 2 CTAs running
GPGPU-Sim uArch: core: 12, cta: 0 initialized @(57638,0)
GPGPU-Sim uArch: Shader 8 finished CTA #0 (57643,0), 2 CTAs running
GPGPU-Sim uArch: core:  8, cta: 0 initialized @(57644,0)
GPGPU-Sim uArch: Shader 3 finished CTA #0 (57667,0), 2 CTAs running
GPGPU-Sim uArch: core:  3, cta: 0 initialized @(57668,0)
GPGPU-Sim uArch: Shader 11 finished CTA #0 (57688,0), 2 CTAs running
GPGPU-Sim uArch: core: 11, cta: 0 initialized @(57689,0)
GPGPU-Sim uArch: Shader 6 finished CTA #0 (57697,0), 2 CTAs running
GPGPU-Sim uArch: core:  6, cta: 0 initialized @(57698,0)
GPGPU-Sim uArch: Shader 2 finished CTA #1 (57706,0), 2 CTAs running
GPGPU-Sim uArch: core:  2, cta: 1 initialized @(57707,0)
GPGPU-Sim uArch: Shader 3 finished CTA #1 (57718,0), 2 CTAs running
GPGPU-Sim uArch: core:  3, cta: 1 initialized @(57719,0)
GPGPU-Sim uArch: Shader 10 finished CTA #1 (57719,0), 2 CTAs running
GPGPU-Sim uArch: core: 10, cta: 1 initialized @(57720,0)
GPGPU-Sim uArch: Shader 0 finished CTA #0 (57724,0), 2 CTAs running
GPGPU-Sim uArch: core:  0, cta: 0 initialized @(57725,0)
GPGPU-Sim uArch: Shader 11 finished CTA #1 (57727,0), 2 CTAs running
GPGPU-Sim uArch: core: 11, cta: 1 initialized @(57728,0)
GPGPU-Sim uArch: Shader 6 finished CTA #1 (57739,0), 2 CTAs running
GPGPU-Sim uArch: core:  6, cta: 1 initialized @(57740,0)
GPGPU-Sim uArch: Shader 4 finished CTA #1 (57764,0), 2 CTAs running
GPGPU-Sim uArch: core:  4, cta: 1 initialized @(57765,0)
GPGPU-Sim uArch: Shader 5 finished CTA #0 (57774,0), 2 CTAs running
GPGPU-Sim uArch: core:  5, cta: 0 initialized @(57775,0)
GPGPU-Sim uArch: Shader 14 finished CTA #1 (57781,0), 2 CTAs running
GPGPU-Sim uArch: core: 14, cta: 1 initialized @(57782,0)
GPGPU-Sim uArch: Shader 2 finished CTA #2 (57784,0), 2 CTAs running
GPGPU-Sim uArch: Shader 8 finished CTA #1 (57784,0), 2 CTAs running
GPGPU-Sim uArch: core:  2, cta: 2 initialized @(57785,0)
GPGPU-Sim uArch: core:  8, cta: 1 initialized @(57785,0)
GPGPU-Sim uArch: Shader 13 finished CTA #0 (57794,0), 2 CTAs running
GPGPU-Sim uArch: core: 13, cta: 0 initialized @(57795,0)
GPGPU-Sim uArch: Shader 10 finished CTA #2 (57796,0), 2 CTAs running
GPGPU-Sim uArch: core: 10, cta: 2 initialized @(57797,0)
GPGPU-Sim uArch: Shader 9 finished CTA #2 (57820,0), 2 CTAs running
GPGPU-Sim uArch: core:  9, cta: 2 initialized @(57821,0)
GPGPU-Sim uArch: Shader 11 finished CTA #2 (57822,0), 2 CTAs running
GPGPU-Sim uArch: core: 11, cta: 2 initialized @(57823,0)
GPGPU-Sim uArch: Shader 12 finished CTA #1 (57823,0), 2 CTAs running
GPGPU-Sim uArch: core: 12, cta: 1 initialized @(57824,0)
GPGPU-Sim uArch: Shader 1 finished CTA #0 (57830,0), 2 CTAs running
GPGPU-Sim uArch: core:  1, cta: 0 initialized @(57831,0)
GPGPU-Sim uArch: Shader 0 finished CTA #1 (57838,0), 2 CTAs running
GPGPU-Sim uArch: core:  0, cta: 1 initialized @(57839,0)
GPGPU-Sim uArch: Shader 3 finished CTA #2 (57841,0), 2 CTAs running
GPGPU-Sim uArch: core:  3, cta: 2 initialized @(57842,0)
GPGPU-Sim uArch: Shader 4 finished CTA #2 (57844,0), 2 CTAs running
GPGPU-Sim uArch: core:  4, cta: 2 initialized @(57845,0)
GPGPU-Sim uArch: Shader 7 finished CTA #0 (57845,0), 2 CTAs running
GPGPU-Sim uArch: core:  7, cta: 0 initialized @(57846,0)
GPGPU-Sim uArch: Shader 6 finished CTA #2 (57853,0), 2 CTAs running
GPGPU-Sim uArch: core:  6, cta: 2 initialized @(57854,0)
GPGPU-Sim uArch: Shader 13 finished CTA #1 (57880,0), 2 CTAs running
GPGPU-Sim uArch: core: 13, cta: 1 initialized @(57881,0)
GPGPU-Sim uArch: Shader 12 finished CTA #2 (57903,0), 2 CTAs running
GPGPU-Sim uArch: core: 12, cta: 2 initialized @(57904,0)
GPGPU-Sim PTX: 14800000 instructions simulated : ctaid=(75,0,0) tid=(63,0,0)
GPGPU-Sim uArch: Shader 0 finished CTA #2 (57916,0), 2 CTAs running
GPGPU-Sim uArch: Shader 13 finished CTA #2 (57916,0), 2 CTAs running
GPGPU-Sim uArch: core: 13, cta: 2 initialized @(57917,0)
GPGPU-Sim uArch: core:  0, cta: 2 initialized @(57917,0)
GPGPU-Sim uArch: Shader 5 finished CTA #1 (57934,0), 2 CTAs running
GPGPU-Sim uArch: core:  5, cta: 1 initialized @(57935,0)
GPGPU-Sim uArch: Shader 1 finished CTA #1 (57964,0), 2 CTAs running
GPGPU-Sim uArch: core:  1, cta: 1 initialized @(57965,0)
GPGPU-Sim uArch: Shader 7 finished CTA #1 (57973,0), 2 CTAs running
GPGPU-Sim uArch: core:  7, cta: 1 initialized @(57974,0)
GPGPU-Sim uArch: Shader 14 finished CTA #2 (57983,0), 2 CTAs running
GPGPU-Sim uArch: core: 14, cta: 2 initialized @(57984,0)
GPGPU-Sim uArch: Shader 8 finished CTA #2 (57985,0), 2 CTAs running
GPGPU-Sim uArch: core:  8, cta: 2 initialized @(57986,0)
GPGPU-Sim uArch: cycles simulated: 58000  inst.: 14791680 (ipc=255.0) sim_rate=308160 (inst/sec) elapsed = 0:0:00:48 / Tue Apr 16 16:55:19 2019
GPGPU-Sim uArch: Shader 1 finished CTA #2 (58003,0), 2 CTAs running
GPGPU-Sim uArch: core:  1, cta: 2 initialized @(58004,0)
GPGPU-Sim uArch: Shader 5 finished CTA #2 (58012,0), 2 CTAs running
GPGPU-Sim uArch: core:  5, cta: 2 initialized @(58013,0)
GPGPU-Sim uArch: Shader 7 finished CTA #2 (58018,0), 2 CTAs running
GPGPU-Sim uArch: core:  7, cta: 2 initialized @(58019,0)
GPGPU-Sim PTX: 14900000 instructions simulated : ctaid=(49,0,0) tid=(31,0,0)
GPGPU-Sim PTX: 15000000 instructions simulated : ctaid=(47,0,0) tid=(127,0,0)
GPGPU-Sim uArch: cycles simulated: 58500  inst.: 14991008 (ipc=256.3) sim_rate=305938 (inst/sec) elapsed = 0:0:00:49 / Tue Apr 16 16:55:20 2019
GPGPU-Sim PTX: 15100000 instructions simulated : ctaid=(56,0,0) tid=(127,0,0)
GPGPU-Sim PTX: 15200000 instructions simulated : ctaid=(83,0,0) tid=(95,0,0)
GPGPU-Sim PTX: 15300000 instructions simulated : ctaid=(64,0,0) tid=(127,0,0)
GPGPU-Sim uArch: cycles simulated: 59500  inst.: 15304512 (ipc=257.2) sim_rate=306090 (inst/sec) elapsed = 0:0:00:50 / Tue Apr 16 16:55:21 2019
GPGPU-Sim PTX: 15400000 instructions simulated : ctaid=(48,0,0) tid=(95,0,0)
GPGPU-Sim PTX: 15500000 instructions simulated : ctaid=(45,0,0) tid=(95,0,0)
GPGPU-Sim PTX: 15600000 instructions simulated : ctaid=(53,0,0) tid=(95,0,0)
GPGPU-Sim PTX: 15700000 instructions simulated : ctaid=(75,0,0) tid=(127,0,0)
GPGPU-Sim PTX: 15800000 instructions simulated : ctaid=(78,0,0) tid=(63,0,0)
GPGPU-Sim PTX: 15900000 instructions simulated : ctaid=(57,0,0) tid=(127,0,0)
GPGPU-Sim uArch: cycles simulated: 60500  inst.: 15852096 (ipc=262.0) sim_rate=310825 (inst/sec) elapsed = 0:0:00:51 / Tue Apr 16 16:55:22 2019
GPGPU-Sim PTX: 16000000 instructions simulated : ctaid=(49,0,0) tid=(127,0,0)
GPGPU-Sim PTX: 16100000 instructions simulated : ctaid=(50,0,0) tid=(127,0,0)
GPGPU-Sim uArch: cycles simulated: 61000  inst.: 16103264 (ipc=264.0) sim_rate=309678 (inst/sec) elapsed = 0:0:00:52 / Tue Apr 16 16:55:23 2019
GPGPU-Sim PTX: 16200000 instructions simulated : ctaid=(55,0,0) tid=(127,0,0)
GPGPU-Sim PTX: 16300000 instructions simulated : ctaid=(55,0,0) tid=(127,0,0)
GPGPU-Sim PTX: 16400000 instructions simulated : ctaid=(60,0,0) tid=(95,0,0)
GPGPU-Sim PTX: 16500000 instructions simulated : ctaid=(67,0,0) tid=(63,0,0)
GPGPU-Sim uArch: cycles simulated: 62000  inst.: 16447392 (ipc=265.3) sim_rate=310328 (inst/sec) elapsed = 0:0:00:53 / Tue Apr 16 16:55:24 2019
GPGPU-Sim PTX: 16600000 instructions simulated : ctaid=(81,0,0) tid=(63,0,0)
GPGPU-Sim PTX: 16700000 instructions simulated : ctaid=(76,0,0) tid=(95,0,0)
GPGPU-Sim PTX: 16800000 instructions simulated : ctaid=(53,0,0) tid=(95,0,0)
GPGPU-Sim uArch: cycles simulated: 63000  inst.: 16807904 (ipc=266.8) sim_rate=311257 (inst/sec) elapsed = 0:0:00:54 / Tue Apr 16 16:55:25 2019
GPGPU-Sim PTX: 16900000 instructions simulated : ctaid=(61,0,0) tid=(31,0,0)
GPGPU-Sim PTX: 17000000 instructions simulated : ctaid=(83,0,0) tid=(31,0,0)
GPGPU-Sim PTX: 17100000 instructions simulated : ctaid=(56,0,0) tid=(63,0,0)
GPGPU-Sim PTX: 17200000 instructions simulated : ctaid=(86,0,0) tid=(127,0,0)
GPGPU-Sim uArch: cycles simulated: 64000  inst.: 17230272 (ipc=269.2) sim_rate=313277 (inst/sec) elapsed = 0:0:00:55 / Tue Apr 16 16:55:26 2019
GPGPU-Sim PTX: 17300000 instructions simulated : ctaid=(87,0,0) tid=(95,0,0)
GPGPU-Sim PTX: 17400000 instructions simulated : ctaid=(73,0,0) tid=(127,0,0)
GPGPU-Sim PTX: 17500000 instructions simulated : ctaid=(75,0,0) tid=(95,0,0)
GPGPU-Sim PTX: 17600000 instructions simulated : ctaid=(72,0,0) tid=(127,0,0)
GPGPU-Sim uArch: cycles simulated: 65000  inst.: 17615360 (ipc=271.0) sim_rate=314560 (inst/sec) elapsed = 0:0:00:56 / Tue Apr 16 16:55:27 2019
GPGPU-Sim PTX: 17700000 instructions simulated : ctaid=(59,0,0) tid=(95,0,0)
GPGPU-Sim PTX: 17800000 instructions simulated : ctaid=(60,0,0) tid=(63,0,0)
GPGPU-Sim uArch: cycles simulated: 65500  inst.: 17808064 (ipc=271.9) sim_rate=312422 (inst/sec) elapsed = 0:0:00:57 / Tue Apr 16 16:55:28 2019
GPGPU-Sim PTX: 17900000 instructions simulated : ctaid=(53,0,0) tid=(31,0,0)
GPGPU-Sim PTX: 18000000 instructions simulated : ctaid=(53,0,0) tid=(31,0,0)
GPGPU-Sim PTX: 18100000 instructions simulated : ctaid=(75,0,0) tid=(95,0,0)
GPGPU-Sim PTX: 18200000 instructions simulated : ctaid=(55,0,0) tid=(95,0,0)
GPGPU-Sim uArch: cycles simulated: 66500  inst.: 18189536 (ipc=273.5) sim_rate=313612 (inst/sec) elapsed = 0:0:00:58 / Tue Apr 16 16:55:29 2019
GPGPU-Sim PTX: 18300000 instructions simulated : ctaid=(57,0,0) tid=(127,0,0)
GPGPU-Sim PTX: 18400000 instructions simulated : ctaid=(74,0,0) tid=(31,0,0)
GPGPU-Sim PTX: 18500000 instructions simulated : ctaid=(45,0,0) tid=(63,0,0)
GPGPU-Sim PTX: 18600000 instructions simulated : ctaid=(59,0,0) tid=(31,0,0)
GPGPU-Sim uArch: cycles simulated: 67500  inst.: 18574560 (ipc=275.2) sim_rate=314823 (inst/sec) elapsed = 0:0:00:59 / Tue Apr 16 16:55:30 2019
GPGPU-Sim PTX: 18700000 instructions simulated : ctaid=(59,0,0) tid=(63,0,0)
GPGPU-Sim PTX: 18800000 instructions simulated : ctaid=(72,0,0) tid=(127,0,0)
GPGPU-Sim PTX: 18900000 instructions simulated : ctaid=(51,0,0) tid=(95,0,0)
GPGPU-Sim PTX: 19000000 instructions simulated : ctaid=(87,0,0) tid=(95,0,0)
GPGPU-Sim uArch: cycles simulated: 68500  inst.: 18966816 (ipc=276.9) sim_rate=316113 (inst/sec) elapsed = 0:0:01:00 / Tue Apr 16 16:55:31 2019
GPGPU-Sim PTX: 19100000 instructions simulated : ctaid=(73,0,0) tid=(127,0,0)
GPGPU-Sim PTX: 19200000 instructions simulated : ctaid=(79,0,0) tid=(31,0,0)
GPGPU-Sim PTX: 19300000 instructions simulated : ctaid=(84,0,0) tid=(95,0,0)
GPGPU-Sim PTX: 19400000 instructions simulated : ctaid=(45,0,0) tid=(127,0,0)
GPGPU-Sim uArch: cycles simulated: 69500  inst.: 19361728 (ipc=278.6) sim_rate=317405 (inst/sec) elapsed = 0:0:01:01 / Tue Apr 16 16:55:32 2019
GPGPU-Sim PTX: 19500000 instructions simulated : ctaid=(64,0,0) tid=(31,0,0)
GPGPU-Sim PTX: 19600000 instructions simulated : ctaid=(46,0,0) tid=(95,0,0)
GPGPU-Sim PTX: 19700000 instructions simulated : ctaid=(88,0,0) tid=(31,0,0)
GPGPU-Sim uArch: cycles simulated: 70500  inst.: 19744544 (ipc=280.1) sim_rate=318460 (inst/sec) elapsed = 0:0:01:02 / Tue Apr 16 16:55:33 2019
GPGPU-Sim PTX: 19800000 instructions simulated : ctaid=(49,0,0) tid=(31,0,0)
GPGPU-Sim PTX: 19900000 instructions simulated : ctaid=(83,0,0) tid=(63,0,0)
GPGPU-Sim PTX: 20000000 instructions simulated : ctaid=(75,0,0) tid=(63,0,0)
GPGPU-Sim PTX: 20100000 instructions simulated : ctaid=(62,0,0) tid=(63,0,0)
GPGPU-Sim uArch: cycles simulated: 71500  inst.: 20132384 (ipc=281.6) sim_rate=319561 (inst/sec) elapsed = 0:0:01:03 / Tue Apr 16 16:55:34 2019
GPGPU-Sim PTX: 20200000 instructions simulated : ctaid=(78,0,0) tid=(31,0,0)
GPGPU-Sim PTX: 20300000 instructions simulated : ctaid=(80,0,0) tid=(31,0,0)
GPGPU-Sim uArch: cycles simulated: 72000  inst.: 20326976 (ipc=282.3) sim_rate=317609 (inst/sec) elapsed = 0:0:01:04 / Tue Apr 16 16:55:35 2019
GPGPU-Sim PTX: 20400000 instructions simulated : ctaid=(71,0,0) tid=(127,0,0)
GPGPU-Sim PTX: 20500000 instructions simulated : ctaid=(64,0,0) tid=(95,0,0)
GPGPU-Sim PTX: 20600000 instructions simulated : ctaid=(86,0,0) tid=(31,0,0)
GPGPU-Sim PTX: 20700000 instructions simulated : ctaid=(52,0,0) tid=(31,0,0)
GPGPU-Sim uArch: cycles simulated: 73000  inst.: 20722112 (ipc=283.9) sim_rate=318801 (inst/sec) elapsed = 0:0:01:05 / Tue Apr 16 16:55:36 2019
GPGPU-Sim PTX: 20800000 instructions simulated : ctaid=(56,0,0) tid=(127,0,0)
GPGPU-Sim PTX: 20900000 instructions simulated : ctaid=(67,0,0) tid=(31,0,0)
GPGPU-Sim PTX: 21000000 instructions simulated : ctaid=(49,0,0) tid=(31,0,0)
GPGPU-Sim PTX: 21100000 instructions simulated : ctaid=(63,0,0) tid=(63,0,0)
GPGPU-Sim uArch: cycles simulated: 74000  inst.: 21112768 (ipc=285.3) sim_rate=319890 (inst/sec) elapsed = 0:0:01:06 / Tue Apr 16 16:55:37 2019
GPGPU-Sim PTX: 21200000 instructions simulated : ctaid=(59,0,0) tid=(63,0,0)
GPGPU-Sim PTX: 21300000 instructions simulated : ctaid=(82,0,0) tid=(31,0,0)
GPGPU-Sim PTX: 21400000 instructions simulated : ctaid=(64,0,0) tid=(127,0,0)
GPGPU-Sim PTX: 21500000 instructions simulated : ctaid=(53,0,0) tid=(63,0,0)
GPGPU-Sim uArch: cycles simulated: 75000  inst.: 21499904 (ipc=286.7) sim_rate=320894 (inst/sec) elapsed = 0:0:01:07 / Tue Apr 16 16:55:38 2019
GPGPU-Sim PTX: 21600000 instructions simulated : ctaid=(52,0,0) tid=(31,0,0)
GPGPU-Sim PTX: 21700000 instructions simulated : ctaid=(74,0,0) tid=(63,0,0)
GPGPU-Sim PTX: 21800000 instructions simulated : ctaid=(75,0,0) tid=(63,0,0)
GPGPU-Sim PTX: 21900000 instructions simulated : ctaid=(75,0,0) tid=(95,0,0)
GPGPU-Sim uArch: cycles simulated: 76000  inst.: 21895744 (ipc=288.1) sim_rate=321996 (inst/sec) elapsed = 0:0:01:08 / Tue Apr 16 16:55:39 2019
GPGPU-Sim PTX: 22000000 instructions simulated : ctaid=(49,0,0) tid=(31,0,0)
GPGPU-Sim PTX: 22100000 instructions simulated : ctaid=(82,0,0) tid=(95,0,0)
GPGPU-Sim PTX: 22200000 instructions simulated : ctaid=(59,0,0) tid=(63,0,0)
GPGPU-Sim PTX: 22300000 instructions simulated : ctaid=(59,0,0) tid=(127,0,0)
GPGPU-Sim uArch: cycles simulated: 77000  inst.: 22290400 (ipc=289.5) sim_rate=323049 (inst/sec) elapsed = 0:0:01:09 / Tue Apr 16 16:55:40 2019
GPGPU-Sim PTX: 22400000 instructions simulated : ctaid=(80,0,0) tid=(95,0,0)
GPGPU-Sim PTX: 22500000 instructions simulated : ctaid=(47,0,0) tid=(31,0,0)
GPGPU-Sim PTX: 22600000 instructions simulated : ctaid=(76,0,0) tid=(31,0,0)
GPGPU-Sim PTX: 22700000 instructions simulated : ctaid=(50,0,0) tid=(31,0,0)
GPGPU-Sim uArch: cycles simulated: 78000  inst.: 22677568 (ipc=290.7) sim_rate=323965 (inst/sec) elapsed = 0:0:01:10 / Tue Apr 16 16:55:41 2019
GPGPU-Sim PTX: 22800000 instructions simulated : ctaid=(55,0,0) tid=(31,0,0)
GPGPU-Sim PTX: 22900000 instructions simulated : ctaid=(57,0,0) tid=(95,0,0)
GPGPU-Sim PTX: 23000000 instructions simulated : ctaid=(53,0,0) tid=(95,0,0)
GPGPU-Sim PTX: 23100000 instructions simulated : ctaid=(85,0,0) tid=(127,0,0)
GPGPU-Sim uArch: cycles simulated: 79000  inst.: 23062144 (ipc=291.9) sim_rate=324818 (inst/sec) elapsed = 0:0:01:11 / Tue Apr 16 16:55:42 2019
GPGPU-Sim PTX: 23200000 instructions simulated : ctaid=(46,0,0) tid=(95,0,0)
GPGPU-Sim PTX: 23300000 instructions simulated : ctaid=(56,0,0) tid=(63,0,0)
GPGPU-Sim PTX: 23400000 instructions simulated : ctaid=(88,0,0) tid=(95,0,0)
GPGPU-Sim PTX: 23500000 instructions simulated : ctaid=(54,0,0) tid=(95,0,0)
GPGPU-Sim uArch: cycles simulated: 80000  inst.: 23447680 (ipc=293.1) sim_rate=325662 (inst/sec) elapsed = 0:0:01:12 / Tue Apr 16 16:55:43 2019
GPGPU-Sim PTX: 23600000 instructions simulated : ctaid=(58,0,0) tid=(31,0,0)
GPGPU-Sim PTX: 23700000 instructions simulated : ctaid=(48,0,0) tid=(95,0,0)
GPGPU-Sim PTX: 23800000 instructions simulated : ctaid=(76,0,0) tid=(63,0,0)
GPGPU-Sim uArch: cycles simulated: 81000  inst.: 23831328 (ipc=294.2) sim_rate=326456 (inst/sec) elapsed = 0:0:01:13 / Tue Apr 16 16:55:44 2019
GPGPU-Sim PTX: 23900000 instructions simulated : ctaid=(74,0,0) tid=(95,0,0)
GPGPU-Sim PTX: 24000000 instructions simulated : ctaid=(71,0,0) tid=(63,0,0)
GPGPU-Sim PTX: 24100000 instructions simulated : ctaid=(64,0,0) tid=(31,0,0)
GPGPU-Sim PTX: 24200000 instructions simulated : ctaid=(55,0,0) tid=(127,0,0)
GPGPU-Sim uArch: cycles simulated: 82000  inst.: 24223232 (ipc=295.4) sim_rate=327340 (inst/sec) elapsed = 0:0:01:14 / Tue Apr 16 16:55:45 2019
GPGPU-Sim PTX: 24300000 instructions simulated : ctaid=(61,0,0) tid=(127,0,0)
GPGPU-Sim PTX: 24400000 instructions simulated : ctaid=(86,0,0) tid=(31,0,0)
GPGPU-Sim PTX: 24500000 instructions simulated : ctaid=(54,0,0) tid=(127,0,0)
GPGPU-Sim PTX: 24600000 instructions simulated : ctaid=(72,0,0) tid=(63,0,0)
GPGPU-Sim uArch: cycles simulated: 83000  inst.: 24613568 (ipc=296.5) sim_rate=328180 (inst/sec) elapsed = 0:0:01:15 / Tue Apr 16 16:55:46 2019
GPGPU-Sim PTX: 24700000 instructions simulated : ctaid=(78,0,0) tid=(95,0,0)
GPGPU-Sim PTX: 24800000 instructions simulated : ctaid=(62,0,0) tid=(95,0,0)
GPGPU-Sim PTX: 24900000 instructions simulated : ctaid=(84,0,0) tid=(63,0,0)
GPGPU-Sim PTX: 25000000 instructions simulated : ctaid=(50,0,0) tid=(95,0,0)
GPGPU-Sim uArch: cycles simulated: 84000  inst.: 25002656 (ipc=297.7) sim_rate=328982 (inst/sec) elapsed = 0:0:01:16 / Tue Apr 16 16:55:47 2019
GPGPU-Sim PTX: 25100000 instructions simulated : ctaid=(76,0,0) tid=(127,0,0)
GPGPU-Sim PTX: 25200000 instructions simulated : ctaid=(89,0,0) tid=(63,0,0)
GPGPU-Sim PTX: 25300000 instructions simulated : ctaid=(53,0,0) tid=(31,0,0)
GPGPU-Sim PTX: 25400000 instructions simulated : ctaid=(56,0,0) tid=(95,0,0)
GPGPU-Sim uArch: cycles simulated: 85000  inst.: 25391840 (ipc=298.7) sim_rate=329764 (inst/sec) elapsed = 0:0:01:17 / Tue Apr 16 16:55:48 2019
GPGPU-Sim PTX: 25500000 instructions simulated : ctaid=(56,0,0) tid=(63,0,0)
GPGPU-Sim PTX: 25600000 instructions simulated : ctaid=(45,0,0) tid=(127,0,0)
GPGPU-Sim PTX: 25700000 instructions simulated : ctaid=(46,0,0) tid=(127,0,0)
GPGPU-Sim PTX: 25800000 instructions simulated : ctaid=(63,0,0) tid=(63,0,0)
GPGPU-Sim uArch: cycles simulated: 86000  inst.: 25778176 (ipc=299.7) sim_rate=330489 (inst/sec) elapsed = 0:0:01:18 / Tue Apr 16 16:55:49 2019
GPGPU-Sim PTX: 25900000 instructions simulated : ctaid=(60,0,0) tid=(31,0,0)
GPGPU-Sim PTX: 26000000 instructions simulated : ctaid=(62,0,0) tid=(31,0,0)
GPGPU-Sim uArch: cycles simulated: 86500  inst.: 25971968 (ipc=300.3) sim_rate=328759 (inst/sec) elapsed = 0:0:01:19 / Tue Apr 16 16:55:50 2019
GPGPU-Sim PTX: 26100000 instructions simulated : ctaid=(76,0,0) tid=(95,0,0)
GPGPU-Sim PTX: 26200000 instructions simulated : ctaid=(76,0,0) tid=(31,0,0)
GPGPU-Sim uArch: cycles simulated: 87000  inst.: 26160384 (ipc=300.7) sim_rate=327004 (inst/sec) elapsed = 0:0:01:20 / Tue Apr 16 16:55:51 2019
GPGPU-Sim PTX: 26300000 instructions simulated : ctaid=(53,0,0) tid=(31,0,0)
GPGPU-Sim PTX: 26400000 instructions simulated : ctaid=(75,0,0) tid=(127,0,0)
GPGPU-Sim uArch: cycles simulated: 87500  inst.: 26352800 (ipc=301.2) sim_rate=325343 (inst/sec) elapsed = 0:0:01:21 / Tue Apr 16 16:55:52 2019
GPGPU-Sim PTX: 26500000 instructions simulated : ctaid=(64,0,0) tid=(63,0,0)
GPGPU-Sim PTX: 26600000 instructions simulated : ctaid=(73,0,0) tid=(31,0,0)
GPGPU-Sim PTX: 26700000 instructions simulated : ctaid=(46,0,0) tid=(95,0,0)
GPGPU-Sim uArch: cycles simulated: 88500  inst.: 26739104 (ipc=302.1) sim_rate=326086 (inst/sec) elapsed = 0:0:01:22 / Tue Apr 16 16:55:53 2019
GPGPU-Sim PTX: 26800000 instructions simulated : ctaid=(83,0,0) tid=(63,0,0)
GPGPU-Sim PTX: 26900000 instructions simulated : ctaid=(47,0,0) tid=(127,0,0)
GPGPU-Sim PTX: 27000000 instructions simulated : ctaid=(72,0,0) tid=(127,0,0)
GPGPU-Sim PTX: 27100000 instructions simulated : ctaid=(48,0,0) tid=(95,0,0)
GPGPU-Sim uArch: cycles simulated: 89500  inst.: 27127584 (ipc=303.1) sim_rate=326838 (inst/sec) elapsed = 0:0:01:23 / Tue Apr 16 16:55:54 2019
GPGPU-Sim PTX: 27200000 instructions simulated : ctaid=(67,0,0) tid=(31,0,0)
GPGPU-Sim PTX: 27300000 instructions simulated : ctaid=(47,0,0) tid=(95,0,0)
GPGPU-Sim PTX: 27400000 instructions simulated : ctaid=(54,0,0) tid=(127,0,0)
GPGPU-Sim PTX: 27500000 instructions simulated : ctaid=(84,0,0) tid=(127,0,0)
GPGPU-Sim uArch: cycles simulated: 90500  inst.: 27518336 (ipc=304.1) sim_rate=327599 (inst/sec) elapsed = 0:0:01:24 / Tue Apr 16 16:55:55 2019
GPGPU-Sim PTX: 27600000 instructions simulated : ctaid=(86,0,0) tid=(31,0,0)
GPGPU-Sim PTX: 27700000 instructions simulated : ctaid=(51,0,0) tid=(63,0,0)
GPGPU-Sim PTX: 27800000 instructions simulated : ctaid=(59,0,0) tid=(63,0,0)
GPGPU-Sim PTX: 27900000 instructions simulated : ctaid=(49,0,0) tid=(127,0,0)
GPGPU-Sim uArch: cycles simulated: 91500  inst.: 27913632 (ipc=305.1) sim_rate=328395 (inst/sec) elapsed = 0:0:01:25 / Tue Apr 16 16:55:56 2019
GPGPU-Sim PTX: 28000000 instructions simulated : ctaid=(70,0,0) tid=(31,0,0)
GPGPU-Sim PTX: 28100000 instructions simulated : ctaid=(48,0,0) tid=(127,0,0)
GPGPU-Sim PTX: 28200000 instructions simulated : ctaid=(58,0,0) tid=(127,0,0)
GPGPU-Sim PTX: 28300000 instructions simulated : ctaid=(63,0,0) tid=(127,0,0)
GPGPU-Sim uArch: cycles simulated: 92500  inst.: 28302112 (ipc=306.0) sim_rate=329094 (inst/sec) elapsed = 0:0:01:26 / Tue Apr 16 16:55:57 2019
GPGPU-Sim PTX: 28400000 instructions simulated : ctaid=(58,0,0) tid=(63,0,0)
GPGPU-Sim PTX: 28500000 instructions simulated : ctaid=(64,0,0) tid=(95,0,0)
GPGPU-Sim PTX: 28600000 instructions simulated : ctaid=(77,0,0) tid=(127,0,0)
GPGPU-Sim PTX: 28700000 instructions simulated : ctaid=(61,0,0) tid=(31,0,0)
GPGPU-Sim uArch: cycles simulated: 93500  inst.: 28684928 (ipc=306.8) sim_rate=329711 (inst/sec) elapsed = 0:0:01:27 / Tue Apr 16 16:55:58 2019
GPGPU-Sim PTX: 28800000 instructions simulated : ctaid=(76,0,0) tid=(127,0,0)
GPGPU-Sim PTX: 28900000 instructions simulated : ctaid=(73,0,0) tid=(63,0,0)
GPGPU-Sim PTX: 29000000 instructions simulated : ctaid=(52,0,0) tid=(31,0,0)
GPGPU-Sim PTX: 29100000 instructions simulated : ctaid=(52,0,0) tid=(95,0,0)
GPGPU-Sim uArch: cycles simulated: 94500  inst.: 29069280 (ipc=307.6) sim_rate=330332 (inst/sec) elapsed = 0:0:01:28 / Tue Apr 16 16:55:59 2019
GPGPU-Sim PTX: 29200000 instructions simulated : ctaid=(72,0,0) tid=(63,0,0)
GPGPU-Sim PTX: 29300000 instructions simulated : ctaid=(88,0,0) tid=(31,0,0)
GPGPU-Sim PTX: 29400000 instructions simulated : ctaid=(61,0,0) tid=(63,0,0)
GPGPU-Sim uArch: Shader 9 finished CTA #0 (95793,0), 2 CTAs running
GPGPU-Sim uArch: core:  9, cta: 0 initialized @(95794,0)
GPGPU-Sim uArch: Shader 2 finished CTA #0 (95807,0), 2 CTAs running
GPGPU-Sim uArch: core:  2, cta: 0 initialized @(95808,0)
GPGPU-Sim uArch: Shader 9 finished CTA #1 (95820,0), 2 CTAs running
GPGPU-Sim uArch: core:  9, cta: 1 initialized @(95821,0)
GPGPU-Sim uArch: Shader 2 finished CTA #1 (95928,0), 2 CTAs running
GPGPU-Sim uArch: core:  2, cta: 1 initialized @(95929,0)
GPGPU-Sim uArch: Shader 9 finished CTA #2 (95933,0), 2 CTAs running
GPGPU-Sim uArch: core:  9, cta: 2 initialized @(95934,0)
GPGPU-Sim uArch: Shader 4 finished CTA #0 (95994,0), 2 CTAs running
GPGPU-Sim uArch: core:  4, cta: 0 initialized @(95995,0)
GPGPU-Sim uArch: cycles simulated: 96000  inst.: 29419072 (ipc=306.4) sim_rate=330551 (inst/sec) elapsed = 0:0:01:29 / Tue Apr 16 16:56:00 2019
GPGPU-Sim uArch: Shader 3 finished CTA #0 (96033,0), 2 CTAs running
GPGPU-Sim uArch: core:  3, cta: 0 initialized @(96034,0)
GPGPU-Sim uArch: Shader 12 finished CTA #0 (96053,0), 2 CTAs running
GPGPU-Sim uArch: core: 12, cta: 0 initialized @(96054,0)
GPGPU-Sim uArch: Shader 6 finished CTA #0 (96055,0), 2 CTAs running
GPGPU-Sim uArch: core:  6, cta: 0 initialized @(96056,0)
GPGPU-Sim uArch: Shader 2 finished CTA #2 (96081,0), 2 CTAs running
GPGPU-Sim uArch: core:  2, cta: 2 initialized @(96082,0)
GPGPU-Sim uArch: Shader 8 finished CTA #0 (96086,0), 2 CTAs running
GPGPU-Sim uArch: core:  8, cta: 0 initialized @(96087,0)
GPGPU-Sim uArch: Shader 6 finished CTA #1 (96117,0), 2 CTAs running
GPGPU-Sim uArch: core:  6, cta: 1 initialized @(96118,0)
GPGPU-Sim uArch: Shader 3 finished CTA #1 (96124,0), 2 CTAs running
GPGPU-Sim uArch: core:  3, cta: 1 initialized @(96125,0)
GPGPU-Sim uArch: Shader 5 finished CTA #0 (96127,0), 2 CTAs running
GPGPU-Sim uArch: core:  5, cta: 0 initialized @(96128,0)
GPGPU-Sim uArch: Shader 14 finished CTA #0 (96129,0), 2 CTAs running
GPGPU-Sim uArch: core: 14, cta: 0 initialized @(96130,0)
GPGPU-Sim uArch: Shader 10 finished CTA #0 (96153,0), 2 CTAs running
GPGPU-Sim uArch: core: 10, cta: 0 initialized @(96154,0)
GPGPU-Sim uArch: Shader 8 finished CTA #1 (96158,0), 2 CTAs running
GPGPU-Sim uArch: core:  8, cta: 1 initialized @(96159,0)
GPGPU-Sim uArch: Shader 4 finished CTA #1 (96162,0), 2 CTAs running
GPGPU-Sim uArch: core:  4, cta: 1 initialized @(96163,0)
GPGPU-Sim PTX: 29500000 instructions simulated : ctaid=(95,0,0) tid=(63,0,0)
GPGPU-Sim uArch: Shader 6 finished CTA #2 (96195,0), 2 CTAs running
GPGPU-Sim uArch: core:  6, cta: 2 initialized @(96196,0)
GPGPU-Sim uArch: Shader 8 finished CTA #2 (96196,0), 2 CTAs running
GPGPU-Sim uArch: core:  8, cta: 2 initialized @(96197,0)
[...]
traffic_breakdown_memtocore[GLOBAL_ACC_W] = 196608 {8:24576,}
traffic_breakdown_memtocore[INST_ACC_R] = 2715648 {136:19968,}
maxmrqlatency = 197 
maxdqlatency = 0 
maxmflatency = 760 
averagemflatency = 233 
max_icnt2mem_latency = 281 
max_icnt2sh_latency = 363753 
mrq_lat_table:3066 	414 	372 	2461 	1612 	897 	507 	45 	0 	0 	0 	0 	0 	0 	0 	0 	0 	0 	0 	0 	0 	0 	0 	0 	0 	0 	0 	0 	0 	0 	0 	0 	
dq_lat_table:0 	0 	0 	0 	0 	0 	0 	0 	0 	0 	0 	0 	0 	0 	0 	0 	0 	0 	0 	0 	0 	0 	0 	0 	0 	0 	0 	0 	0 	0 	0 	0 	
mf_lat_table:0 	0 	0 	0 	0 	0 	0 	18928 	8232 	346 	0 	0 	0 	0 	0 	0 	0 	0 	0 	0 	0 	0 	0 	0 	0 	0 	0 	0 	0 	0 	0 	0 	
icnt2mem_lat_table:0 	0 	0 	23339 	1647 	15528 	6268 	666 	26 	0 	0 	0 	0 	0 	0 	0 	0 	0 	0 	0 	0 	0 	0 	0 	
icnt2sh_lat_table:0 	0 	0 	1652 	1019 	251 	8 	0 	0 	0 	0 	0 	0 	0 	0 	2880 	2880 	11520 	7296 	0 	0 	0 	0 	0 	
mf_lat_pw_table:0 	0 	0 	0 	0 	0 	0 	93 	16 	0 	0 	0 	0 	0 	0 	0 	0 	0 	0 	0 	0 	0 	0 	0 	0 	0 	0 	0 	0 	0 	0 	0 	
maximum concurrent accesses to same row:
dram[0]:         7         8         6         5        10        10         0         0         0         0         0         0         0         0         0         0 
dram[1]:         8         8         6         4        10        10         0         0         0         0         0         0         0         0         0         0 
dram[2]:         8         8         6         4        10        12         0         0         0         0         0         0         0         0         0         0 
dram[3]:         8         8         6         4        10        12         0         0         0         0         0         0         0         0         0         0 
dram[4]:         8         8         6         4        10        12         0         0         0         0         0         0         0         0         0         0 
dram[5]:         7         8         6         4        10        12         0         0         0         0         0         0         0         0         0         0 
maximum service time to same row:
dram[0]:    133939    129110    176581    207791    320819    321106      3210      3238     99081     99113    176454    211885     56853     56950     57139     57297 
dram[1]:    133624    128185    175926    207117    320853    321163      3213      3244     99104     99119    176460    211890     56825     56844     57046     57154 
dram[2]:    132916    127493    175234    206398    320874    321223      3244      3256     99071     99284    176794    212188     56850     56874     57170     57157 
dram[3]:    132194    126907    209838    205981    321122    321109      3257      3262     99094     99285    211862    212313     56824     56822     57143     57183 
dram[4]:    131564    126207    209143    205268    321156    321133      3213      3251     99103     99301    211872    212329     56841     56810     57057     57143 
dram[5]:    129356    125539    208458    204625    321084    321176      3229      3265     99109     99309    211879    212335     56844     56853     57171     57102 
average row accesses per activate:
dram[0]: 42.250000 84.000000 83.000000 82.500000 60.000000 60.000000 32.000000 32.000000 32.000000 32.000000 32.000000 32.000000 72.000000 72.000000 160.000000 160.000000 
dram[1]: 84.000000 84.000000 83.000000 82.000000 60.000000 60.000000 32.000000 32.000000 32.000000 32.000000 32.000000 32.000000 72.000000 72.000000 160.000000 160.000000 
dram[2]: 84.000000 84.000000 83.000000 82.000000 60.000000 61.000000 32.000000 32.000000 32.000000 32.000000 32.000000 32.000000 72.000000 71.000000 160.000000 160.000000 
dram[3]: 84.000000 84.000000 83.000000 82.000000 60.000000 56.000000 32.000000 32.000000 32.000000 32.000000 32.000000 32.000000 72.000000 80.000000 160.000000 160.000000 
dram[4]: 84.000000 84.000000 83.000000 82.000000 60.000000 56.000000 32.000000 32.000000 32.000000 32.000000 32.000000 32.000000 72.000000 80.000000 160.000000 160.000000 
dram[5]: 83.500000 84.000000 83.000000 82.000000 60.000000 56.000000 32.000000 32.000000 32.000000 32.000000 32.000000 32.000000 72.000000 80.000000 160.000000 160.000000 
average row locality = 9374/134 = 69.955223
number of total memory accesses made:
dram[0]:         0         0         0         0         0         0         0         0         0         0         0         0         0         0         0         0 
dram[1]:         0         0         0         0         0         0         0         0         0         0         0         0         0         0         0         0 
dram[2]:         0         0         0         0         0         0         0         0         0         0         0         0         0         0         0         0 
dram[3]:         0         0         0         0         0         0         0         0         0         0         0         0         0         0         0         0 
dram[4]:         0         0         0         0         0         0         0         0         0         0         0         0         0         0         0         0 
dram[5]:         0         0         0         0         0         0         0         0         0         0         0         0         0         0         0         0 
total accesses: 0
min_bank_accesses = 0!
min_chip_accesses = 0!
number of total read accesses:
dram[0]:        41        40        38        37        32        32        32        32        32        32        32        32        32        32        32        32 
dram[1]:        40        40        38        36        32        32        32        32        32        32        32        32        32        32        32        32 
dram[2]:        40        40        38        36        32        34        32        32        32        32        32        32        32        31        32        32 
dram[3]:        40        40        38        36        32        32        32        32        32        32        32        32        32        32        32        32 
dram[4]:        40        40        38        36        32        32        32        32        32        32        32        32        32        32        32        32 
dram[5]:        39        40        38        36        32        32        32        32        32        32        32        32        32        32        32        32 
total reads: 3230
bank skew: 41/31 = 1.32
chip skew: 540/537 = 1.01
number of total write accesses:
dram[0]:       128       128       128       128        88        88         0         0         0         0         0         0        40        40       128       128 
dram[1]:       128       128       128       128        88        88         0         0         0         0         0         0        40        40       128       128 
dram[2]:       128       128       128       128        88        88         0         0         0         0         0         0        40        40       128       128 
dram[3]:       128       128       128       128        88        80         0         0         0         0         0         0        40        48       128       128 
dram[4]:       128       128       128       128        88        80         0         0         0         0         0         0        40        48       128       128 
dram[5]:       128       128       128       128        88        80         0         0         0         0         0         0        40        48       128       128 
total reads: 6144
min_bank_accesses = 0!
chip skew: 1024/1024 = 1.00
average mf latency per bank:
dram[0]:        697       689       696       704       753       758       601       720       317       313       297       292       706       856       841       836
dram[1]:        682       666       680       687       699       716       287       553       273       271       271       272       735       732       806       806
dram[2]:        692       678       690       695       751       750       646       605       341       335       341       334       785       713       853       804
dram[3]:        671       669       666       667       687       672       389       444       271       273       276       272       755       814       786       760
dram[4]:        678       681       682       693       749       753       660       664       318       315       296       295       758       824       767       763
dram[5]:        695       678       701       706       727       698       447       392       272       273       275       273       711       798       803       829
maximum mf latency per bank:
dram[0]:        358       383       407       372       373       402       338       322       299       291       278       310       600       723       659       760
dram[1]:        368       378       378       357       384       416       360       335       292       294       285       297       625       622       666       647
dram[2]:        367       384       388       368       384       384       318       341       278       293       283       283       584       567       677       621
dram[3]:        356       346       411       343       385       382       321       351       296       319       342       291       639       744       675       655
dram[4]:        368       374       389       401       393       392       395       324       290       295       320       293       561       679       608       634
dram[5]:        382       371       388       400       406       372       337       317       293       298       316       293       643       680       669       678

Number of Memory Banks Accessed per Memory Operation per Warp (from 0):
0	0	0	0	0	0	0	0	0	0	0	0	0	0	0	0	0	0	0	0	0	0	0	0	0	0	0	0	0	0	0	0	0	0	0	0	0	0	0	0	0	0	0	0	0	0	0	0	0	0	0	0	0	0	0	0	0	0	0	0	0	0	0	0	0	0	0	0	0	0	0	0	0	0	0	0	0	0	0	0	0	0	0	0	0	0	0	0	0	0	0	0	0	0	0	0	
Average # of Memory Banks Accessed per Memory Operation per Warp=-nan

position of mrq chosen
0	0	0	0	0	0	0	0	0	0	0	0	0	0	0	0	

average position of mrq chosen = -nan
Memory Partition 0: 
Cache L2_bank_000:
MSHR contents

Cache L2_bank_001:
MSHR contents

In Dram Latency Queue (total = 0): 
DRAM[0]: 16 bks, busW=4 BL=8 CL=12, tRRD=2 tCCD=6, tRCD=12 tRAS=28 tRP=12 tRC=40
n_cmd=480154 n_nop=478018 n_act=24 n_pre=8 n_req=1564 n_rd=1080 n_write=1024 bw_util=0.008764
n_activity=13164 dram_eff=0.3197
bk0: 82a 478950i bk1: 80a 478933i bk2: 76a 478926i bk3: 74a 478956i bk4: 64a 479302i bk5: 64a 479174i bk6: 64a 479916i bk7: 64a 479878i bk8: 64a 480006i bk9: 64a 480013i bk10: 64a 479993i bk11: 64a 480008i bk12: 64a 479620i bk13: 64a 479448i bk14: 64a 478646i bk15: 64a 478709i 
dram_util_bins: 0 0 0 0 0 0 0 0 0 0
dram_eff_bins: 0 0 0 0 0 0 0 0 0 0
mrqq: max=16 avg=0.0746865
Memory Partition 1: 
Cache L2_bank_002:
MSHR contents

Cache L2_bank_003:
MSHR contents

In Dram Latency Queue (total = 0): 
DRAM[1]: 16 bks, busW=4 BL=8 CL=12, tRRD=2 tCCD=6, tRCD=12 tRAS=28 tRP=12 tRC=40
n_cmd=480154 n_nop=478026 n_act=22 n_pre=6 n_req=1562 n_rd=1076 n_write=1024 bw_util=0.008747
n_activity=12582 dram_eff=0.3338
bk0: 80a 478963i bk1: 80a 478999i bk2: 76a 479000i bk3: 72a 478991i bk4: 64a 479305i bk5: 64a 479132i bk6: 64a 479889i bk7: 64a 479848i bk8: 64a 479993i bk9: 64a 479997i bk10: 64a 479992i bk11: 64a 479985i bk12: 64a 479458i bk13: 64a 479405i bk14: 64a 478608i bk15: 64a 478686i 
dram_util_bins: 0 0 0 0 0 0 0 0 0 0
dram_eff_bins: 0 0 0 0 0 0 0 0 0 0
mrqq: max=16 avg=0.0687946
Memory Partition 2: 
Cache L2_bank_004:
MSHR contents

Cache L2_bank_005:
MSHR contents

In Dram Latency Queue (total = 0): 
DRAM[2]: 16 bks, busW=4 BL=8 CL=12, tRRD=2 tCCD=6, tRCD=12 tRAS=28 tRP=12 tRC=40
n_cmd=480154 n_nop=478024 n_act=22 n_pre=6 n_req=1563 n_rd=1078 n_write=1024 bw_util=0.008756
n_activity=12934 dram_eff=0.325
bk0: 80a 478963i bk1: 80a 478926i bk2: 76a 478907i bk3: 72a 478932i bk4: 64a 479289i bk5: 68a 479186i bk6: 64a 479932i bk7: 64a 479888i bk8: 64a 480001i bk9: 64a 479973i bk10: 64a 480008i bk11: 64a 479993i bk12: 64a 479461i bk13: 62a 479472i bk14: 64a 478761i bk15: 64a 478701i 
dram_util_bins: 0 0 0 0 0 0 0 0 0 0
dram_eff_bins: 0 0 0 0 0 0 0 0 0 0
mrqq: max=16 avg=0.0733181
Memory Partition 3: 
Cache L2_bank_006:
MSHR contents

Cache L2_bank_007:
MSHR contents

In Dram Latency Queue (total = 0): 
DRAM[3]: 16 bks, busW=4 BL=8 CL=12, tRRD=2 tCCD=6, tRCD=12 tRAS=28 tRP=12 tRC=40
n_cmd=480154 n_nop=478026 n_act=22 n_pre=6 n_req=1562 n_rd=1076 n_write=1024 bw_util=0.008747
n_activity=12379 dram_eff=0.3393
bk0: 80a 478995i bk1: 80a 478974i bk2: 76a 478941i bk3: 72a 478918i bk4: 64a 479214i bk5: 64a 479252i bk6: 64a 479915i bk7: 64a 479845i bk8: 64a 479980i bk9: 64a 479961i bk10: 64a 479976i bk11: 64a 479969i bk12: 64a 479535i bk13: 64a 479334i bk14: 64a 478734i bk15: 64a 478691i 
dram_util_bins: 0 0 0 0 0 0 0 0 0 0
dram_eff_bins: 0 0 0 0 0 0 0 0 0 0
mrqq: max=16 avg=0.0712001
Memory Partition 4: 
Cache L2_bank_008:
MSHR contents

Cache L2_bank_009:
MSHR contents

In Dram Latency Queue (total = 0): 
DRAM[4]: 16 bks, busW=4 BL=8 CL=12, tRRD=2 tCCD=6, tRCD=12 tRAS=28 tRP=12 tRC=40
n_cmd=480154 n_nop=478026 n_act=22 n_pre=6 n_req=1562 n_rd=1076 n_write=1024 bw_util=0.008747
n_activity=12954 dram_eff=0.3242
bk0: 80a 478973i bk1: 80a 478946i bk2: 76a 478976i bk3: 72a 478930i bk4: 64a 479268i bk5: 64a 479315i bk6: 64a 479922i bk7: 64a 479928i bk8: 64a 480004i bk9: 64a 479999i bk10: 64a 480006i bk11: 64a 479998i bk12: 64a 479451i bk13: 64a 479336i bk14: 64a 478707i bk15: 64a 478716i 
dram_util_bins: 0 0 0 0 0 0 0 0 0 0
dram_eff_bins: 0 0 0 0 0 0 0 0 0 0
mrqq: max=16 avg=0.0652895
Memory Partition 5: 
Cache L2_bank_010:
MSHR contents

Cache L2_bank_011:
MSHR contents

In Dram Latency Queue (total = 0): 
DRAM[5]: 16 bks, busW=4 BL=8 CL=12, tRRD=2 tCCD=6, tRCD=12 tRAS=28 tRP=12 tRC=40
n_cmd=480154 n_nop=478028 n_act=22 n_pre=6 n_req=1561 n_rd=1074 n_write=1024 bw_util=0.008739
n_activity=12510 dram_eff=0.3354
bk0: 78a 478904i bk1: 80a 478991i bk2: 76a 478949i bk3: 72a 478912i bk4: 64a 479276i bk5: 64a 479308i bk6: 64a 479893i bk7: 64a 479862i bk8: 64a 479987i bk9: 64a 479985i bk10: 64a 479976i bk11: 64a 479985i bk12: 64a 479500i bk13: 64a 479333i bk14: 64a 478709i bk15: 64a 478694i 
dram_util_bins: 0 0 0 0 0 0 0 0 0 0
dram_eff_bins: 0 0 0 0 0 0 0 0 0 0
mrqq: max=16 avg=0.0793037

========= L2 cache stats =========
L2_cache_bank[0]: Access = 4138, Miss = 271, Miss_rate = 0.065, Pending_hits = 429, Reservation_fails = 1521
L2_cache_bank[1]: Access = 4017, Miss = 269, Miss_rate = 0.067, Pending_hits = 425, Reservation_fails = 1332
L2_cache_bank[2]: Access = 3990, Miss = 270, Miss_rate = 0.068, Pending_hits = 426, Reservation_fails = 1420
L2_cache_bank[3]: Access = 3803, Miss = 268, Miss_rate = 0.070, Pending_hits = 420, Reservation_fails = 1058
L2_cache_bank[4]: Access = 4153, Miss = 270, Miss_rate = 0.065, Pending_hits = 439, Reservation_fails = 1326
L2_cache_bank[5]: Access = 3897, Miss = 269, Miss_rate = 0.069, Pending_hits = 428, Reservation_fails = 1161
L2_cache_bank[6]: Access = 4014, Miss = 270, Miss_rate = 0.067, Pending_hits = 426, Reservation_fails = 1298
L2_cache_bank[7]: Access = 3769, Miss = 268, Miss_rate = 0.071, Pending_hits = 420, Reservation_fails = 1304
L2_cache_bank[8]: Access = 4134, Miss = 270, Miss_rate = 0.065, Pending_hits = 425, Reservation_fails = 1188
L2_cache_bank[9]: Access = 3892, Miss = 268, Miss_rate = 0.069, Pending_hits = 420, Reservation_fails = 1111
L2_cache_bank[10]: Access = 3909, Miss = 269, Miss_rate = 0.069, Pending_hits = 423, Reservation_fails = 1273
L2_cache_bank[11]: Access = 3758, Miss = 268, Miss_rate = 0.071, Pending_hits = 420, Reservation_fails = 1226
L2_total_cache_accesses = 47474
L2_total_cache_misses = 3230
L2_total_cache_miss_rate = 0.0680
L2_total_cache_pending_hits = 5101
L2_total_cache_reservation_fails = 15218
L2_total_cache_breakdown:
	L2_cache_stats_breakdown[GLOBAL_ACC_R][HIT] = 1355
	L2_cache_stats_breakdown[GLOBAL_ACC_R][HIT_RESERVED] = 23
	L2_cache_stats_breakdown[GLOBAL_ACC_R][MISS] = 1537
	L2_cache_stats_breakdown[CONST_ACC_R][HIT] = 11
	L2_cache_stats_breakdown[CONST_ACC_R][HIT_RESERVED] = 3
	L2_cache_stats_breakdown[CONST_ACC_R][MISS] = 1
	L2_cache_stats_breakdown[CONST_ACC_R][RESERVATION_FAIL] = 109
	L2_cache_stats_breakdown[GLOBAL_ACC_W][HIT] = 18432
	L2_cache_stats_breakdown[GLOBAL_ACC_W][HIT_RESERVED] = 4608
	L2_cache_stats_breakdown[GLOBAL_ACC_W][MISS] = 1536
	L2_cache_stats_breakdown[GLOBAL_ACC_W][RESERVATION_FAIL] = 943
	L2_cache_stats_breakdown[INST_ACC_R][HIT] = 19345
	L2_cache_stats_breakdown[INST_ACC_R][HIT_RESERVED] = 467
	L2_cache_stats_breakdown[INST_ACC_R][MISS] = 156
	L2_cache_stats_breakdown[INST_ACC_R][RESERVATION_FAIL] = 14166
L2_cache_data_port_util = 0.023
L2_cache_fill_port_util = 0.003

icnt_total_pkts_mem_to_simt=139036
icnt_total_pkts_simt_to_mem=72050
LD_mem_lat_dist  0 0 0 0 0 0 0 0 0 0 0 0 0 0 0 0 0 0 0 0 0 0 0 0 0 0 0
ST_mem_lat_dist  0 0 0 0 0 0 0 0 0 0 0 0 0 0 0 0 0 0 0 0 0 0 0 0 0 0 0
----------------------------Interconnect-DETAILS--------------------------------
Class 0:
Packet latency average = 16.1148
	minimum = 6
	maximum = 228
Network latency average = 12.1824
	minimum = 6
	maximum = 186
Slowest packet = 7345
Flit latency average = 9.94631
	minimum = 6
	maximum = 185
Slowest flit = 21393
Fragmentation average = 0
	minimum = 0
	maximum = 0
Injected packet rate average = 0.0096675
	minimum = 0.00813737 (at node 1)
	maximum = 0.0114171 (at node 19)
Accepted packet rate average = 0.0096675
	minimum = 0.00813737 (at node 1)
	maximum = 0.0114171 (at node 19)
Injected flit rate average = 0.0214925
	minimum = 0.01236 (at node 1)
	maximum = 0.0345646 (at node 19)
Accepted flit rate average= 0.0214925
	minimum = 0.0159613 (at node 26)
	maximum = 0.0270403 (at node 11)
Injected packet length average = 2.22317
Accepted packet length average = 2.22317
Total in-flight flits = 0 (0 measured)
====== Overall Traffic Statistics ======
====== Traffic class 0 ======
Packet latency average = 16.1148 (1 samples)
	minimum = 6 (1 samples)
	maximum = 228 (1 samples)
Network latency average = 12.1824 (1 samples)
	minimum = 6 (1 samples)
	maximum = 186 (1 samples)
Flit latency average = 9.94631 (1 samples)
	minimum = 6 (1 samples)
	maximum = 185 (1 samples)
Fragmentation average = 0 (1 samples)
	minimum = 0 (1 samples)
	maximum = 0 (1 samples)
Injected packet rate average = 0.0096675 (1 samples)
	minimum = 0.00813737 (1 samples)
	maximum = 0.0114171 (1 samples)
Accepted packet rate average = 0.0096675 (1 samples)
	minimum = 0.00813737 (1 samples)
	maximum = 0.0114171 (1 samples)
Injected flit rate average = 0.0214925 (1 samples)
	minimum = 0.01236 (1 samples)
	maximum = 0.0345646 (1 samples)
Accepted flit rate average = 0.0214925 (1 samples)
	minimum = 0.0159613 (1 samples)
	maximum = 0.0270403 (1 samples)
Injected packet size average = 2.22317 (1 samples)
Accepted packet size average = 2.22317 (1 samples)
Hops average = 1 (1 samples)
----------------------------END-of-Interconnect-DETAILS-------------------------


gpgpu_simulation_time = 0 days, 0 hrs, 5 min, 56 sec (356 sec)
gpgpu_simulation_rate = 353176 (inst/sec)
gpgpu_simulation_rate = 1021 (cycle/sec)
GPGPU-Sim: synchronize waiting for inactive GPU simulation
GPGPU-Sim API: Stream Manager State
GPGPU-Sim: detected inactive GPU simulation thread

== GPU Timing ==
GPU init                 : 0.009000
Host input buffer alloc  : 0.008000
-----
Host output buffer alloc : 0.006000
GPU memory alloc         : 0.005000
Data copy in             : 13.148000
Kernel execution         : 354246.125000
Data copy out            : 6.711000
Last hasing stage        : 0.000000
GPU Proc. Time (gpu init and input alloc are not included):  354266.000000 

== CPU Execution Context ==
Threads       : 128
Blocks        : 384
Total Threads : 49152
Total Size    : 196656
Chunk Size    : 52
Padding       : 0

CPU Processing time(ms):    28.398001 

Output size: 196608
Test PASSED
CPU GPU
FD FD
DD DD
2 2
F9 F9
