

        *** GPGPU-Sim Simulator Version 3.2.2  [build 0] ***


GPGPU-Sim PTX: simulation mode 0 (can change with PTX_SIM_MODE_FUNC environment variable:
               1=functional simulation only, 0=detailed performance simulator)
GPGPU-Sim: Configuration options:

-network_mode                           1 # Interconnection network mode
-inter_config_file   config_fermi_islip.icnt # Interconnection network config file
-gpgpu_ptx_use_cuobjdump                    1 # Use cuobjdump to extract ptx and sass from binaries
-gpgpu_experimental_lib_support                    0 # Try to extract code from cuda libraries [Broken because of unknown cudaGetExportTable]
-gpgpu_ptx_convert_to_ptxplus                    0 # Convert SASS (native ISA) to ptxplus and run ptxplus
-gpgpu_ptx_force_max_capability                   20 # Force maximum compute capability
-gpgpu_ptx_inst_debug_to_file                    0 # Dump executed instructions' debug information to file
-gpgpu_ptx_inst_debug_file       inst_debug.txt # Executed instructions' debug output file
-gpgpu_ptx_inst_debug_thread_uid                    1 # Thread UID for executed instructions' debug output
-gpgpu_simd_model                       1 # 1 = post-dominator
-gpgpu_shader_core_pipeline              1536:32 # shader core pipeline config, i.e., {<nthread>:<warpsize>}
-gpgpu_tex_cache:l1  4:128:24,L:R:m:N:L,F:128:4,128:2 # per-shader L1 texture cache  (READ-ONLY) config  {<nsets>:<bsize>:<assoc>,<rep>:<wr>:<alloc>:<wr_alloc>,<mshr>:<N>:<merge>,<mq>:<rf>}
-gpgpu_const_cache:l1 64:64:2,L:R:f:N:L,A:2:32,4 # per-shader L1 constant memory cache  (READ-ONLY) config  {<nsets>:<bsize>:<assoc>,<rep>:<wr>:<alloc>:<wr_alloc>,<mshr>:<N>:<merge>,<mq>} 
-gpgpu_cache:il1     4:128:4,L:R:f:N:L,A:2:32,4 # shader L1 instruction cache config  {<nsets>:<bsize>:<assoc>,<rep>:<wr>:<alloc>:<wr_alloc>,<mshr>:<N>:<merge>,<mq>} 
-gpgpu_cache:dl1     32:128:8,L:L:m:N:H,A:32:8,8 # per-shader L1 data cache config  {<nsets>:<bsize>:<assoc>,<rep>:<wr>:<alloc>:<wr_alloc>,<mshr>:<N>:<merge>,<mq> | none}
-gpgpu_cache:dl1PrefL1                 none # per-shader L1 data cache config  {<nsets>:<bsize>:<assoc>,<rep>:<wr>:<alloc>:<wr_alloc>,<mshr>:<N>:<merge>,<mq> | none}
-gpgpu_cache:dl1PreShared                 none # per-shader L1 data cache config  {<nsets>:<bsize>:<assoc>,<rep>:<wr>:<alloc>:<wr_alloc>,<mshr>:<N>:<merge>,<mq> | none}
-gmem_skip_L1D                          0 # global memory access skip L1D cache (implements -Xptxas -dlcm=cg, default=no skip)
-gpgpu_perfect_mem                      0 # enable perfect memory mode (no cache miss)
-n_regfile_gating_group                    4 # group of lanes that should be read/written together)
-gpgpu_clock_gated_reg_file                    0 # enable clock gated reg file for power calculations
-gpgpu_clock_gated_lanes                    0 # enable clock gated lanes for power calculations
-gpgpu_shader_registers                32768 # Number of registers per shader core. Limits number of concurrent CTAs. (default 8192)
-gpgpu_shader_cta                       8 # Maximum number of concurrent CTAs in shader (default 8)
-gpgpu_num_cta_barriers                   16 # Maximum number of named barriers per CTA (default 16)
-gpgpu_n_clusters                      15 # number of processing clusters
-gpgpu_n_cores_per_cluster                    1 # number of simd cores per cluster
-gpgpu_n_cluster_ejection_buffer_size                    8 # number of packets in ejection buffer
-gpgpu_n_ldst_response_buffer_size                    2 # number of response packets in ld/st unit ejection buffer
-gpgpu_shmem_size                   16384 # Size of shared memory per shader core (default 16kB)
-gpgpu_shmem_size                   49152 # Size of shared memory per shader core (default 16kB)
-gpgpu_shmem_size_PrefL1                16384 # Size of shared memory per shader core (default 16kB)
-gpgpu_shmem_size_PrefShared                16384 # Size of shared memory per shader core (default 16kB)
-gpgpu_shmem_num_banks                   32 # Number of banks in the shared memory in each shader core (default 16)
-gpgpu_shmem_limited_broadcast                    0 # Limit shared memory to do one broadcast per cycle (default on)
-gpgpu_shmem_warp_parts                    1 # Number of portions a warp is divided into for shared memory bank conflict check 
-gpgpu_warpdistro_shader                   -1 # Specify which shader core to collect the warp size distribution from
-gpgpu_warp_issue_shader                    0 # Specify which shader core to collect the warp issue distribution from
-gpgpu_local_mem_map                    1 # Mapping from local memory space address to simulated GPU physical address space (default = enabled)
-gpgpu_num_reg_banks                   16 # Number of register banks (default = 8)
-gpgpu_reg_bank_use_warp_id                    0 # Use warp ID in mapping registers to banks (default = off)
-gpgpu_operand_collector_num_units_sp                    6 # number of collector units (default = 4)
-gpgpu_operand_collector_num_units_sfu                    8 # number of collector units (default = 4)
-gpgpu_operand_collector_num_units_mem                    2 # number of collector units (default = 2)
-gpgpu_operand_collector_num_units_gen                    0 # number of collector units (default = 0)
-gpgpu_operand_collector_num_in_ports_sp                    2 # number of collector unit in ports (default = 1)
-gpgpu_operand_collector_num_in_ports_sfu                    1 # number of collector unit in ports (default = 1)
-gpgpu_operand_collector_num_in_ports_mem                    1 # number of collector unit in ports (default = 1)
-gpgpu_operand_collector_num_in_ports_gen                    0 # number of collector unit in ports (default = 0)
-gpgpu_operand_collector_num_out_ports_sp                    2 # number of collector unit in ports (default = 1)
-gpgpu_operand_collector_num_out_ports_sfu                    1 # number of collector unit in ports (default = 1)
-gpgpu_operand_collector_num_out_ports_mem                    1 # number of collector unit in ports (default = 1)
-gpgpu_operand_collector_num_out_ports_gen                    0 # number of collector unit in ports (default = 0)
-gpgpu_coalesce_arch                   13 # Coalescing arch (default = 13, anything else is off for now)
-gpgpu_num_sched_per_core                    2 # Number of warp schedulers per core
-gpgpu_max_insn_issue_per_warp                    1 # Max number of instructions that can be issued per warp in one cycle by scheduler
-gpgpu_simt_core_sim_order                    1 # Select the simulation order of cores in a cluster (0=Fix, 1=Round-Robin)
-gpgpu_pipeline_widths        2,1,1,2,1,1,2 # Pipeline widths ID_OC_SP,ID_OC_SFU,ID_OC_MEM,OC_EX_SP,OC_EX_SFU,OC_EX_MEM,EX_WB
-gpgpu_num_sp_units                     2 # Number of SP units (default=1)
-gpgpu_num_sfu_units                    1 # Number of SF units (default=1)
-gpgpu_num_mem_units                    1 # Number if ldst units (default=1) WARNING: not hooked up to anything
-gpgpu_scheduler                      gto # Scheduler configuration: < lrr | gto | two_level_active > If two_level_active:<num_active_warps>:<inner_prioritization>:<outer_prioritization>For complete list of prioritization values see shader.h enum scheduler_prioritization_typeDefault: gto
-gpgpu_dram_scheduler                    1 # 0 = fifo, 1 = FR-FCFS (defaul)
-gpgpu_dram_partition_queues              8:8:8:8 # i2$:$2d:d2$:$2i
-l2_ideal                               0 # Use a ideal L2 cache that always hit
-gpgpu_cache:dl2     64:128:8,L:B:m:W:L,A:32:4,4:0,32 # unified banked L2 data cache config  {<nsets>:<bsize>:<assoc>,<rep>:<wr>:<alloc>:<wr_alloc>,<mshr>:<N>:<merge>,<mq>}
-gpgpu_cache:dl2_texture_only                    0 # L2 cache used for texture only
-gpgpu_n_mem                            6 # number of memory modules (e.g. memory controllers) in gpu
-gpgpu_n_sub_partition_per_mchannel                    2 # number of memory subpartition in each memory module
-gpgpu_n_mem_per_ctrlr                    2 # number of memory chips per memory controller
-gpgpu_memlatency_stat                   14 # track and display latency statistics 0x2 enables MC, 0x4 enables queue logs
-gpgpu_frfcfs_dram_sched_queue_size                   16 # 0 = unlimited (default); # entries per chip
-gpgpu_dram_return_queue_size                  116 # 0 = unlimited (default); # entries per chip
-gpgpu_dram_buswidth                    4 # default = 4 bytes (8 bytes per cycle at DDR)
-gpgpu_dram_burst_length                    8 # Burst length of each DRAM request (default = 4 data bus cycle)
-dram_data_command_freq_ratio                    4 # Frequency ratio between DRAM data bus and command bus (default = 2 times, i.e. DDR)
-gpgpu_dram_timing_opt nbk=16:CCD=2:RRD=6:RCD=12:RAS=28:RP=12:RC=40: CL=12:WL=4:CDLR=5:WR=12:nbkgrp=4:CCDL=3:RTPL=2 # DRAM timing parameters = {nbk:tCCD:tRRD:tRCD:tRAS:tRP:tRC:CL:WL:tCDLR:tWR:nbkgrp:tCCDL:tRTPL}
-rop_latency                          120 # ROP queue latency (default 85)
-dram_latency                         100 # DRAM latency (default 30)
-gpgpu_mem_addr_mapping dramid@8;00000000.00000000.00000000.00000000.0000RRRR.RRRRRRRR.BBBCCCCB.CCSSSSSS # mapping memory address to dram model {dramid@<start bit>;<memory address map>}
-gpgpu_mem_addr_test                    0 # run sweep test to check address mapping for aliased address
-gpgpu_mem_address_mask                    1 # 0 = old addressing mask, 1 = new addressing mask, 2 = new add. mask + flipped bank sel and chip sel bits
-gpuwattch_xml_file  gpuwattch_gtx480.xml # GPUWattch XML file
-power_simulation_enabled                    1 # Turn on power simulator (1=On, 0=Off)
-power_per_cycle_dump                    0 # Dump detailed power output each cycle
-power_trace_enabled                    0 # produce a file for the power trace (1=On, 0=Off)
-power_trace_zlevel                     6 # Compression level of the power trace output log (0=no comp, 9=highest)
-steady_power_levels_enabled                    0 # produce a file for the steady power levels (1=On, 0=Off)
-steady_state_definition                  8:4 # allowed deviation:number of samples
-gpgpu_max_cycle                        0 # terminates gpu simulation early (0 = no limit)
-gpgpu_max_insn                         0 # terminates gpu simulation early (0 = no limit)
-gpgpu_max_cta                          0 # terminates gpu simulation early (0 = no limit)
-gpgpu_runtime_stat                   500 # display runtime statistics such as dram utilization {<freq>:<flag>}
-liveness_message_freq                    1 # Minimum number of seconds between simulation liveness messages (0 = always print)
-gpgpu_flush_l1_cache                    0 # Flush L1 cache at the end of each kernel call
-gpgpu_flush_l2_cache                    0 # Flush L2 cache at the end of each kernel call
-gpgpu_deadlock_detect                    1 # Stop the simulation at deadlock (1=on (default), 0=off)
-gpgpu_ptx_instruction_classification                    0 # if enabled will classify ptx instruction types per kernel (Max 255 kernels now)
-gpgpu_ptx_sim_mode                     0 # Select between Performance (default) or Functional simulation (1)
-gpgpu_clock_domains 700.0:700.0:700.0:924.0 # Clock Domain Frequencies in MhZ {<Core Clock>:<ICNT Clock>:<L2 Clock>:<DRAM Clock>}
-gpgpu_max_concurrent_kernel                    8 # maximum kernels that can run concurrently on GPU
-gpgpu_cflog_interval                    0 # Interval between each snapshot in control flow logger
-visualizer_enabled                     0 # Turn on visualizer output (1=On, 0=Off)
-visualizer_outputfile                 NULL # Specifies the output log file for visualizer
-visualizer_zlevel                      6 # Compression level of the visualizer output log (0=no comp, 9=highest)
-trace_enabled                          0 # Turn on traces
-trace_components                    none # comma seperated list of traces to enable. Complete list found in trace_streams.tup. Default none
-trace_sampling_core                    0 # The core which is printed using CORE_DPRINTF. Default 0
-trace_sampling_memory_partition                   -1 # The memory partition which is printed using MEMPART_DPRINTF. Default -1 (i.e. all)
-enable_ptx_file_line_stats                    1 # Turn on PTX source line statistic profiling. (1 = On)
-ptx_line_stats_filename gpgpu_inst_stats.txt # Output file for PTX source line statistics.
-save_embedded_ptx                      0 # saves ptx files embedded in binary as <n>.ptx
-keep                                   0 # keep intermediate files created by GPGPU-Sim when interfacing with external programs
-gpgpu_ptx_save_converted_ptxplus                    0 # Saved converted ptxplus to a file
-ptx_opcode_latency_int         4,13,4,5,145 # Opcode latencies for integers <ADD,MAX,MUL,MAD,DIV>Default 1,1,19,25,145
-ptx_opcode_latency_fp          4,13,4,5,39 # Opcode latencies for single precision floating points <ADD,MAX,MUL,MAD,DIV>Default 1,1,1,1,30
-ptx_opcode_latency_dp         8,19,8,8,330 # Opcode latencies for double precision floating points <ADD,MAX,MUL,MAD,DIV>Default 8,8,8,8,335
-ptx_opcode_initiation_int            1,2,2,1,8 # Opcode initiation intervals for integers <ADD,MAX,MUL,MAD,DIV>Default 1,1,4,4,32
-ptx_opcode_initiation_fp            1,2,1,1,4 # Opcode initiation intervals for single precision floating points <ADD,MAX,MUL,MAD,DIV>Default 1,1,1,1,5
-ptx_opcode_initiation_dp         8,16,8,8,130 # Opcode initiation intervals for double precision floating points <ADD,MAX,MUL,MAD,DIV>Default 8,8,8,8,130
DRAM Timing Options:
nbk                                    16 # number of banks
CCD                                     2 # column to column delay
RRD                                     6 # minimal delay between activation of rows in different banks
RCD                                    12 # row to column delay
RAS                                    28 # time needed to activate row
RP                                     12 # time needed to precharge (deactivate) row
RC                                     40 # row cycle time
CDLR                                    5 # switching from write to read (changes tWTR)
WR                                     12 # last data-in to row precharge
CL                                     12 # CAS latency
WL                                      4 # Write latency
nbkgrp                                  4 # number of bank groups
CCDL                                    3 # column to column delay between accesses to different bank groups
RTPL                                    2 # read to precharge delay between accesses to different bank groups
Total number of memory sub partition = 12
addr_dec_mask[CHIP]  = 0000000000000000 	high:64 low:0
addr_dec_mask[BK]    = 000000000000e100 	high:16 low:8
addr_dec_mask[ROW]   = 000000000fff0000 	high:28 low:16
addr_dec_mask[COL]   = 0000000000001eff 	high:13 low:0
addr_dec_mask[BURST] = 000000000000003f 	high:6 low:0
sub_partition_id_mask = 0000000000000100
GPGPU-Sim uArch: clock freqs: 700000000.000000:700000000.000000:700000000.000000:924000000.000000
GPGPU-Sim uArch: clock periods: 0.00000000142857142857:0.00000000142857142857:0.00000000142857142857:0.00000000108225108225
*** Initializing Memory Statistics ***
GPGPU-Sim uArch: interconnect node map (shaderID+MemID to icntID)
GPGPU-Sim uArch: Memory nodes ID start from index: 15
GPGPU-Sim uArch:    0   1   2   3   4
GPGPU-Sim uArch:    5   6   7   8   9
GPGPU-Sim uArch:   10  11  12  13  14
GPGPU-Sim uArch:   15  16  17  18  19
GPGPU-Sim uArch:   20  21  22  23  24
GPGPU-Sim uArch:   25  26
GPGPU-Sim uArch: interconnect node reverse map (icntID to shaderID+MemID)
GPGPU-Sim uArch: Memory nodes start from ID: 15
GPGPU-Sim uArch:    0   1   2   3   4
GPGPU-Sim uArch:    5   6   7   8   9
GPGPU-Sim uArch:   10  11  12  13  14
GPGPU-Sim uArch:   15  16  17  18  19
GPGPU-Sim uArch:   20  21  22  23  24
GPGPU-Sim uArch:   25  26
36bb1eeaa5c1ff7ca0ddea1af00eaab8  /home/scratch/adwait/applications/benchmarks/CUDA/NN/gpgpu_ptx_sim__NN
GPGPU-Sim uArch: performance model initialization complete.
GPGPU-Sim PTX: __cudaRegisterFatBinary, fat_cubin_handle = 1, filename=NN.cu
self exe links to: /home/scratch/adwait/applications/benchmarks/CUDA/NN/gpgpu_ptx_sim__NN
Running md5sum using "md5sum /home/scratch/adwait/applications/benchmarks/CUDA/NN/gpgpu_ptx_sim__NN "
Running cuobjdump using "$CUDA_INSTALL_PATH/bin/cuobjdump -ptx -elf -sass /home/scratch/adwait/applications/benchmarks/CUDA/NN/gpgpu_ptx_sim__NN > _cuobjdump_complete_output_8esbWR"
Parsing file _cuobjdump_complete_output_8esbWR
######### cuobjdump parser ########
## Adding new section ELF
Adding arch: sm_20
Adding identifier: NN.cu
## Adding new section PTX
Adding ptx filename: _cuobjdump_1.ptx
Adding arch: sm_20
Adding identifier: NN.cu
Done parsing!!!
GPGPU-Sim PTX: __cudaRegisterFunction _Z18executeFourthLayerPfS_S_ : hostFun 0x0x402a51, fat_cubin_handle = 1
GPGPU-Sim PTX: allocating constant region for "kernelTemplate" from 0x100 to 0x164 (global memory space) 1
GPGPU-Sim PTX: instruction assembly for function '_Z17executeFirstLayerPfS_S_'...   done.
GPGPU-Sim PTX: finding reconvergence points for '_Z17executeFirstLayerPfS_S_'...
GPGPU-Sim PTX: Finding dominators for '_Z17executeFirstLayerPfS_S_'...
GPGPU-Sim PTX: Finding immediate dominators for '_Z17executeFirstLayerPfS_S_'...
GPGPU-Sim PTX: Finding postdominators for '_Z17executeFirstLayerPfS_S_'...
GPGPU-Sim PTX: Finding immediate postdominators for '_Z17executeFirstLayerPfS_S_'...
GPGPU-Sim PTX: pre-decoding instructions for '_Z17executeFirstLayerPfS_S_'...
GPGPU-Sim PTX: reconvergence points for _Z17executeFirstLayerPfS_S_...
GPGPU-Sim PTX:  1 (potential) branch divergence @  PC=0x100 (_1.ptx:100) @%p1 bra $Lt_0_4098;
GPGPU-Sim PTX:    immediate post dominator      @  PC=0x108 (_1.ptx:102) cvt.f64.f32 %fd1, %f1;
GPGPU-Sim PTX:  2 (potential) branch divergence @  PC=0x148 (_1.ptx:110) @!%p2 bra $Lt_0_4866;
GPGPU-Sim PTX:    immediate post dominator      @  PC=0x2a8 (_1.ptx:162) cvt.f64.f32 %fd5, %f29;
GPGPU-Sim PTX:  3 (potential) branch divergence @  PC=0x230 (_1.ptx:142) bra.uni $Lt_0_4610;
GPGPU-Sim PTX:    immediate post dominator      @  PC=0x2a8 (_1.ptx:162) cvt.f64.f32 %fd5, %f29;
GPGPU-Sim PTX: ... end of reconvergence points for _Z17executeFirstLayerPfS_S_
GPGPU-Sim PTX: ... done pre-decoding instructions for '_Z17executeFirstLayerPfS_S_'.
GPGPU-Sim PTX: allocating constant region for "kernelTemplate2" from 0x180 to 0x1e4 (global memory space) 2
GPGPU-Sim PTX: instruction assembly for function '_Z18executeSecondLayerPfS_S_'...   done.
GPGPU-Sim PTX: finding reconvergence points for '_Z18executeSecondLayerPfS_S_'...
GPGPU-Sim PTX: Finding dominators for '_Z18executeSecondLayerPfS_S_'...
GPGPU-Sim PTX: Finding immediate dominators for '_Z18executeSecondLayerPfS_S_'...
GPGPU-Sim PTX: Finding postdominators for '_Z18executeSecondLayerPfS_S_'...
GPGPU-Sim PTX: Finding immediate postdominators for '_Z18executeSecondLayerPfS_S_'...
GPGPU-Sim PTX: pre-decoding instructions for '_Z18executeSecondLayerPfS_S_'...
GPGPU-Sim PTX: reconvergence points for _Z18executeSecondLayerPfS_S_...
GPGPU-Sim PTX:  1 (potential) branch divergence @  PC=0x4a0 (_1.ptx:251) @%p1 bra $Lt_1_5634;
GPGPU-Sim PTX:    immediate post dominator      @  PC=0x4a8 (_1.ptx:253) cvt.f64.f32 %fd1, %f1;
GPGPU-Sim PTX:  2 (potential) branch divergence @  PC=0x4e8 (_1.ptx:261) @!%p2 bra $Lt_1_6402;
GPGPU-Sim PTX:    immediate post dominator      @  PC=0x648 (_1.ptx:313) cvt.f64.f32 %fd5, %f44;
GPGPU-Sim PTX:  3 (potential) branch divergence @  PC=0x5d0 (_1.ptx:293) bra.uni $Lt_1_6146;
GPGPU-Sim PTX:    immediate post dominator      @  PC=0x648 (_1.ptx:313) cvt.f64.f32 %fd5, %f44;
GPGPU-Sim PTX: ... end of reconvergence points for _Z18executeSecondLayerPfS_S_
GPGPU-Sim PTX: ... done pre-decoding instructions for '_Z18executeSecondLayerPfS_S_'.
GPGPU-Sim PTX: instruction assembly for function '_Z17executeThirdLayerPfS_S_'...   done.
GPGPU-Sim PTX: finding reconvergence points for '_Z17executeThirdLayerPfS_S_'...
GPGPU-Sim PTX: Finding dominators for '_Z17executeThirdLayerPfS_S_'...
GPGPU-Sim PTX: Finding immediate dominators for '_Z17executeThirdLayerPfS_S_'...
GPGPU-Sim PTX: Finding postdominators for '_Z17executeThirdLayerPfS_S_'...
GPGPU-Sim PTX: Finding immediate postdominators for '_Z17executeThirdLayerPfS_S_'...
GPGPU-Sim PTX: pre-decoding instructions for '_Z17executeThirdLayerPfS_S_'...
GPGPU-Sim PTX: reconvergence points for _Z17executeThirdLayerPfS_S_...
GPGPU-Sim PTX:  1 (potential) branch divergence @  PC=0x788 (_1.ptx:373) @%p1 bra $Lt_2_4098;
GPGPU-Sim PTX:    immediate post dominator      @  PC=0x790 (_1.ptx:375) cvt.f64.f32 %fd1, %f1;
GPGPU-Sim PTX:  2 (potential) branch divergence @  PC=0x7d0 (_1.ptx:383) @!%p2 bra $Lt_2_4866;
GPGPU-Sim PTX:    immediate post dominator      @  PC=0x930 (_1.ptx:435) cvt.f64.f32 %fd5, %f29;
GPGPU-Sim PTX:  3 (potential) branch divergence @  PC=0x8b8 (_1.ptx:415) bra.uni $Lt_2_4610;
GPGPU-Sim PTX:    immediate post dominator      @  PC=0x930 (_1.ptx:435) cvt.f64.f32 %fd5, %f29;
GPGPU-Sim PTX: ... end of reconvergence points for _Z17executeThirdLayerPfS_S_
GPGPU-Sim PTX: ... done pre-decoding instructions for '_Z17executeThirdLayerPfS_S_'.
GPGPU-Sim PTX: instruction assembly for function '_Z18executeFourthLayerPfS_S_'...   done.
GPGPU-Sim PTX: finding reconvergence points for '_Z18executeFourthLayerPfS_S_'...
GPGPU-Sim PTX: Finding dominators for '_Z18executeFourthLayerPfS_S_'...
GPGPU-Sim PTX: Finding immediate dominators for '_Z18executeFourthLayerPfS_S_'...
GPGPU-Sim PTX: Finding postdominators for '_Z18executeFourthLayerPfS_S_'...
GPGPU-Sim PTX: Finding immediate postdominators for '_Z18executeFourthLayerPfS_S_'...
GPGPU-Sim PTX: pre-decoding instructions for '_Z18executeFourthLayerPfS_S_'...
GPGPU-Sim PTX: reconvergence points for _Z18executeFourthLayerPfS_S_...
GPGPU-Sim PTX:  1 (potential) branch divergence @  PC=0xa50 (_1.ptx:491) @%p1 bra $Lt_3_4098;
GPGPU-Sim PTX:    immediate post dominator      @  PC=0xa58 (_1.ptx:493) cvt.f64.f32 %fd1, %f1;
GPGPU-Sim PTX:  2 (potential) branch divergence @  PC=0xa98 (_1.ptx:501) @!%p2 bra $Lt_3_4866;
GPGPU-Sim PTX:    immediate post dominator      @  PC=0xbf8 (_1.ptx:553) cvt.f64.f32 %fd5, %f29;
GPGPU-Sim PTX:  3 (potential) branch divergence @  PC=0xb80 (_1.ptx:533) bra.uni $Lt_3_4610;
GPGPU-Sim PTX:    immediate post dominator      @  PC=0xbf8 (_1.ptx:553) cvt.f64.f32 %fd5, %f29;
GPGPU-Sim PTX: ... end of reconvergence points for _Z18executeFourthLayerPfS_S_
GPGPU-Sim PTX: ... done pre-decoding instructions for '_Z18executeFourthLayerPfS_S_'.
GPGPU-Sim PTX: finished parsing EMBEDDED .ptx file _1.ptx
Adding _cuobjdump_1.ptx with cubin handle 1
GPGPU-Sim PTX: extracting embedded .ptx to temporary file "_ptx_SczajA"
Running: cat _ptx_SczajA | sed 's/.version 1.5/.version 1.4/' | sed 's/, texmode_independent//' | sed 's/\(\.extern \.const\[1\] .b8 \w\+\)\[\]/\1\[1\]/' | sed 's/const\[.\]/const\[0\]/g' > _ptx2_aPCXHi
GPGPU-Sim PTX: generating ptxinfo using "$CUDA_INSTALL_PATH/bin/ptxas --gpu-name=sm_20 -v _ptx2_aPCXHi --output-file  /dev/null 2> _ptx_SczajAinfo"
GPGPU-Sim PTX: Kernel '_Z18executeFourthLayerPfS_S_' : regs=12, lmem=0, smem=0, cmem=288
GPGPU-Sim PTX: Kernel '_Z17executeThirdLayerPfS_S_' : regs=12, lmem=0, smem=0, cmem=288
GPGPU-Sim PTX: Kernel '_Z18executeSecondLayerPfS_S_' : regs=22, lmem=0, smem=0, cmem=288
GPGPU-Sim PTX: Kernel '_Z17executeFirstLayerPfS_S_' : regs=17, lmem=0, smem=0, cmem=288
GPGPU-Sim PTX: removing ptxinfo using "rm -f _ptx_SczajA _ptx2_aPCXHi _ptx_SczajAinfo"
GPGPU-Sim PTX: loading globals with explicit initializers... 
GPGPU-Sim PTX: finished loading globals (0 bytes total).
GPGPU-Sim PTX: loading constants with explicit initializers...  done.
GPGPU-Sim PTX: __cudaRegisterFunction _Z17executeThirdLayerPfS_S_ : hostFun 0x0x40298f, fat_cubin_handle = 1
GPGPU-Sim PTX: __cudaRegisterFunction _Z18executeSecondLayerPfS_S_ : hostFun 0x0x4028cd, fat_cubin_handle = 1
GPGPU-Sim PTX: __cudaRegisterFunction _Z17executeFirstLayerPfS_S_ : hostFun 0x0x40280b, fat_cubin_handle = 1
GPGPU-Sim PTX: __cudaRegisterVar: hostVar = 0x60a180; deviceAddress = kernelTemplate; deviceName = kernelTemplate
GPGPU-Sim PTX: __cudaRegisterVar: Registering const memory space of 100 bytes
GPGPU-Sim PTX registering constant kernelTemplate (100 bytes) to name mapping
GPGPU-Sim PTX: __cudaRegisterVar: hostVar = 0x60a200; deviceAddress = kernelTemplate2; deviceName = kernelTemplate2
GPGPU-Sim PTX: __cudaRegisterVar: Registering const memory space of 100 bytes
GPGPU-Sim PTX registering constant kernelTemplate2 (100 bytes) to name mapping
magic number = 2051
number of items = 10000
number of rows = 28
number of rows = 28
NUM=28

GPGPU-Sim PTX: cudaLaunch for 0x0x40280b (mode=performance simulation) on stream 0
GPGPU-Sim PTX: pushing kernel '_Z17executeFirstLayerPfS_S_' to stream 0, gridDim= (6,28,1) blockDim = (13,13,1) 
kernel '_Z17executeFirstLayerPfS_S_' transfer to GPU hardware scheduler
GPGPU-Sim uArch: Shader 1 bind to kernel 1 '_Z17executeFirstLayerPfS_S_'
GPGPU-Sim uArch: CTA/core = 8, limited by: threads regs cta_limit
GPGPU-Sim uArch: core:  1, cta: 0 initialized @(1,0)
GPGPU-Sim uArch: Shader 2 bind to kernel 1 '_Z17executeFirstLayerPfS_S_'
GPGPU-Sim uArch: core:  2, cta: 0 initialized @(1,0)
GPGPU-Sim uArch: Shader 3 bind to kernel 1 '_Z17executeFirstLayerPfS_S_'
GPGPU-Sim uArch: core:  3, cta: 0 initialized @(1,0)
GPGPU-Sim uArch: Shader 4 bind to kernel 1 '_Z17executeFirstLayerPfS_S_'
GPGPU-Sim uArch: core:  4, cta: 0 initialized @(1,0)
GPGPU-Sim uArch: Shader 5 bind to kernel 1 '_Z17executeFirstLayerPfS_S_'
GPGPU-Sim uArch: core:  5, cta: 0 initialized @(1,0)
GPGPU-Sim uArch: Shader 6 bind to kernel 1 '_Z17executeFirstLayerPfS_S_'
GPGPU-Sim uArch: core:  6, cta: 0 initialized @(1,0)
GPGPU-Sim uArch: Shader 7 bind to kernel 1 '_Z17executeFirstLayerPfS_S_'
GPGPU-Sim uArch: core:  7, cta: 0 initialized @(1,0)
GPGPU-Sim uArch: Shader 8 bind to kernel 1 '_Z17executeFirstLayerPfS_S_'
GPGPU-Sim uArch: core:  8, cta: 0 initialized @(1,0)
GPGPU-Sim uArch: Shader 9 bind to kernel 1 '_Z17executeFirstLayerPfS_S_'
GPGPU-Sim uArch: core:  9, cta: 0 initialized @(1,0)
GPGPU-Sim uArch: Shader 10 bind to kernel 1 '_Z17executeFirstLayerPfS_S_'
GPGPU-Sim uArch: core: 10, cta: 0 initialized @(1,0)
GPGPU-Sim uArch: Shader 11 bind to kernel 1 '_Z17executeFirstLayerPfS_S_'
GPGPU-Sim uArch: core: 11, cta: 0 initialized @(1,0)
GPGPU-Sim uArch: Shader 12 bind to kernel 1 '_Z17executeFirstLayerPfS_S_'
GPGPU-Sim uArch: core: 12, cta: 0 initialized @(1,0)
GPGPU-Sim uArch: Shader 13 bind to kernel 1 '_Z17executeFirstLayerPfS_S_'
GPGPU-Sim uArch: core: 13, cta: 0 initialized @(1,0)
GPGPU-Sim uArch: Shader 14 bind to kernel 1 '_Z17executeFirstLayerPfS_S_'
GPGPU-Sim uArch: core: 14, cta: 0 initialized @(1,0)
GPGPU-Sim uArch: Shader 0 bind to kernel 1 '_Z17executeFirstLayerPfS_S_'
GPGPU-Sim uArch: core:  0, cta: 0 initialized @(1,0)
GPGPU-Sim uArch: core:  1, cta: 1 initialized @(2,0)
GPGPU-Sim uArch: core:  2, cta: 1 initialized @(2,0)
GPGPU-Sim uArch: core:  3, cta: 1 initialized @(2,0)
GPGPU-Sim uArch: core:  4, cta: 1 initialized @(2,0)
GPGPU-Sim uArch: core:  5, cta: 1 initialized @(2,0)
GPGPU-Sim uArch: core:  6, cta: 1 initialized @(2,0)
GPGPU-Sim uArch: core:  7, cta: 1 initialized @(2,0)
GPGPU-Sim uArch: core:  8, cta: 1 initialized @(2,0)
GPGPU-Sim uArch: core:  9, cta: 1 initialized @(2,0)
GPGPU-Sim uArch: core: 10, cta: 1 initialized @(2,0)
GPGPU-Sim uArch: core: 11, cta: 1 initialized @(2,0)
GPGPU-Sim uArch: core: 12, cta: 1 initialized @(2,0)
GPGPU-Sim uArch: core: 13, cta: 1 initialized @(2,0)
GPGPU-Sim uArch: core: 14, cta: 1 initialized @(2,0)
GPGPU-Sim uArch: core:  0, cta: 1 initialized @(2,0)
GPGPU-Sim uArch: core:  1, cta: 2 initialized @(3,0)
GPGPU-Sim uArch: core:  2, cta: 2 initialized @(3,0)
GPGPU-Sim uArch: core:  3, cta: 2 initialized @(3,0)
GPGPU-Sim uArch: core:  4, cta: 2 initialized @(3,0)
GPGPU-Sim uArch: core:  5, cta: 2 initialized @(3,0)
GPGPU-Sim uArch: core:  6, cta: 2 initialized @(3,0)
GPGPU-Sim uArch: core:  7, cta: 2 initialized @(3,0)
GPGPU-Sim uArch: core:  8, cta: 2 initialized @(3,0)
GPGPU-Sim uArch: core:  9, cta: 2 initialized @(3,0)
GPGPU-Sim uArch: core: 10, cta: 2 initialized @(3,0)
GPGPU-Sim uArch: core: 11, cta: 2 initialized @(3,0)
GPGPU-Sim uArch: core: 12, cta: 2 initialized @(3,0)
GPGPU-Sim uArch: core: 13, cta: 2 initialized @(3,0)
GPGPU-Sim uArch: core: 14, cta: 2 initialized @(3,0)
GPGPU-Sim uArch: core:  0, cta: 2 initialized @(3,0)
GPGPU-Sim uArch: core:  1, cta: 3 initialized @(4,0)
GPGPU-Sim uArch: core:  2, cta: 3 initialized @(4,0)
GPGPU-Sim uArch: core:  3, cta: 3 initialized @(4,0)
GPGPU-Sim uArch: core:  4, cta: 3 initialized @(4,0)
GPGPU-Sim uArch: core:  5, cta: 3 initialized @(4,0)
GPGPU-Sim uArch: core:  6, cta: 3 initialized @(4,0)
GPGPU-Sim uArch: core:  7, cta: 3 initialized @(4,0)
GPGPU-Sim uArch: core:  8, cta: 3 initialized @(4,0)
GPGPU-Sim uArch: core:  9, cta: 3 initialized @(4,0)
GPGPU-Sim uArch: core: 10, cta: 3 initialized @(4,0)
GPGPU-Sim uArch: core: 11, cta: 3 initialized @(4,0)
GPGPU-Sim uArch: core: 12, cta: 3 initialized @(4,0)
GPGPU-Sim uArch: core: 13, cta: 3 initialized @(4,0)
GPGPU-Sim uArch: core: 14, cta: 3 initialized @(4,0)
GPGPU-Sim uArch: core:  0, cta: 3 initialized @(4,0)
GPGPU-Sim uArch: core:  1, cta: 4 initialized @(5,0)
GPGPU-Sim uArch: core:  2, cta: 4 initialized @(5,0)
GPGPU-Sim uArch: core:  3, cta: 4 initialized @(5,0)
GPGPU-Sim uArch: core:  4, cta: 4 initialized @(5,0)
GPGPU-Sim uArch: core:  5, cta: 4 initialized @(5,0)
GPGPU-Sim uArch: core:  6, cta: 4 initialized @(5,0)
GPGPU-Sim uArch: core:  7, cta: 4 initialized @(5,0)
GPGPU-Sim uArch: core:  8, cta: 4 initialized @(5,0)
GPGPU-Sim uArch: core:  9, cta: 4 initialized @(5,0)
GPGPU-Sim uArch: core: 10, cta: 4 initialized @(5,0)
GPGPU-Sim uArch: core: 11, cta: 4 initialized @(5,0)
GPGPU-Sim uArch: core: 12, cta: 4 initialized @(5,0)
GPGPU-Sim uArch: core: 13, cta: 4 initialized @(5,0)
GPGPU-Sim uArch: core: 14, cta: 4 initialized @(5,0)
GPGPU-Sim uArch: core:  0, cta: 4 initialized @(5,0)
GPGPU-Sim uArch: core:  1, cta: 5 initialized @(6,0)
GPGPU-Sim uArch: core:  2, cta: 5 initialized @(6,0)
GPGPU-Sim uArch: core:  3, cta: 5 initialized @(6,0)
GPGPU-Sim uArch: core:  4, cta: 5 initialized @(6,0)
GPGPU-Sim uArch: core:  5, cta: 5 initialized @(6,0)
GPGPU-Sim uArch: core:  6, cta: 5 initialized @(6,0)
GPGPU-Sim uArch: core:  7, cta: 5 initialized @(6,0)
GPGPU-Sim uArch: core:  8, cta: 5 initialized @(6,0)
GPGPU-Sim uArch: core:  9, cta: 5 initialized @(6,0)
GPGPU-Sim uArch: core: 10, cta: 5 initialized @(6,0)
GPGPU-Sim uArch: core: 11, cta: 5 initialized @(6,0)
GPGPU-Sim uArch: core: 12, cta: 5 initialized @(6,0)
GPGPU-Sim uArch: core: 13, cta: 5 initialized @(6,0)
GPGPU-Sim uArch: core: 14, cta: 5 initialized @(6,0)
GPGPU-Sim uArch: core:  0, cta: 5 initialized @(6,0)
GPGPU-Sim uArch: core:  1, cta: 6 initialized @(7,0)
GPGPU-Sim uArch: core:  2, cta: 6 initialized @(7,0)
GPGPU-Sim uArch: core:  3, cta: 6 initialized @(7,0)
GPGPU-Sim uArch: core:  4, cta: 6 initialized @(7,0)
GPGPU-Sim uArch: core:  5, cta: 6 initialized @(7,0)
GPGPU-Sim uArch: core:  6, cta: 6 initialized @(7,0)
GPGPU-Sim uArch: core:  7, cta: 6 initialized @(7,0)
GPGPU-Sim uArch: core:  8, cta: 6 initialized @(7,0)
GPGPU-Sim uArch: core:  9, cta: 6 initialized @(7,0)
GPGPU-Sim uArch: core: 10, cta: 6 initialized @(7,0)
GPGPU-Sim uArch: core: 11, cta: 6 initialized @(7,0)
GPGPU-Sim uArch: core: 12, cta: 6 initialized @(7,0)
GPGPU-Sim uArch: core: 13, cta: 6 initialized @(7,0)
GPGPU-Sim uArch: core: 14, cta: 6 initialized @(7,0)
GPGPU-Sim uArch: core:  0, cta: 6 initialized @(7,0)
GPGPU-Sim uArch: core:  1, cta: 7 initialized @(8,0)
GPGPU-Sim uArch: core:  2, cta: 7 initialized @(8,0)
GPGPU-Sim uArch: core:  3, cta: 7 initialized @(8,0)
GPGPU-Sim uArch: core:  4, cta: 7 initialized @(8,0)
GPGPU-Sim uArch: core:  5, cta: 7 initialized @(8,0)
GPGPU-Sim uArch: core:  6, cta: 7 initialized @(8,0)
GPGPU-Sim uArch: core:  7, cta: 7 initialized @(8,0)
GPGPU-Sim uArch: core:  8, cta: 7 initialized @(8,0)
GPGPU-Sim uArch: core:  9, cta: 7 initialized @(8,0)
GPGPU-Sim uArch: core: 10, cta: 7 initialized @(8,0)
GPGPU-Sim uArch: core: 11, cta: 7 initialized @(8,0)
GPGPU-Sim uArch: core: 12, cta: 7 initialized @(8,0)
GPGPU-Sim uArch: core: 13, cta: 7 initialized @(8,0)
GPGPU-Sim uArch: core: 14, cta: 7 initialized @(8,0)
GPGPU-Sim uArch: core:  0, cta: 7 initialized @(8,0)
GPGPU-Sim uArch: cycles simulated: 500  inst.: 70695 (ipc=141.4) sim_rate=35347 (inst/sec) elapsed = 0:0:00:02 / Tue Apr 16 16:51:49 2019
GPGPU-Sim PTX: 100000 instructions simulated : ctaid=(2,0,0) tid=(0,12,0)
GPGPU-Sim PTX: 200000 instructions simulated : ctaid=(5,7,0) tid=(8,5,0)
GPGPU-Sim uArch: cycles simulated: 1000  inst.: 244529 (ipc=244.5) sim_rate=81509 (inst/sec) elapsed = 0:0:00:03 / Tue Apr 16 16:51:50 2019
GPGPU-Sim PTX: 300000 instructions simulated : ctaid=(3,13,0) tid=(9,12,0)
GPGPU-Sim PTX: 400000 instructions simulated : ctaid=(0,0,0) tid=(9,5,0)
GPGPU-Sim uArch: cycles simulated: 1500  inst.: 491791 (ipc=327.9) sim_rate=122947 (inst/sec) elapsed = 0:0:00:04 / Tue Apr 16 16:51:51 2019
GPGPU-Sim PTX: 500000 instructions simulated : ctaid=(0,0,0) tid=(2,12,0)
GPGPU-Sim uArch: cycles simulated: 2500  inst.: 577727 (ipc=231.1) sim_rate=115545 (inst/sec) elapsed = 0:0:00:05 / Tue Apr 16 16:51:52 2019
GPGPU-Sim PTX: 600000 instructions simulated : ctaid=(0,4,0) tid=(7,11,0)
GPGPU-Sim PTX: 700000 instructions simulated : ctaid=(3,0,0) tid=(1,5,0)
GPGPU-Sim PTX: 800000 instructions simulated : ctaid=(5,2,0) tid=(2,12,0)
GPGPU-Sim uArch: cycles simulated: 3000  inst.: 816132 (ipc=272.0) sim_rate=116590 (inst/sec) elapsed = 0:0:00:07 / Tue Apr 16 16:51:54 2019
GPGPU-Sim PTX: 900000 instructions simulated : ctaid=(4,3,0) tid=(7,9,0)
GPGPU-Sim PTX: 1000000 instructions simulated : ctaid=(0,10,0) tid=(5,8,0)
GPGPU-Sim PTX: 1100000 instructions simulated : ctaid=(2,19,0) tid=(6,0,0)
GPGPU-Sim PTX: 1200000 instructions simulated : ctaid=(3,5,0) tid=(9,9,0)
GPGPU-Sim uArch: cycles simulated: 3500  inst.: 1207429 (ipc=345.0) sim_rate=150928 (inst/sec) elapsed = 0:0:00:08 / Tue Apr 16 16:51:55 2019
GPGPU-Sim PTX: 1300000 instructions simulated : ctaid=(4,4,0) tid=(0,12,0)
GPGPU-Sim PTX: 1400000 instructions simulated : ctaid=(2,7,0) tid=(4,7,0)
GPGPU-Sim PTX: 1500000 instructions simulated : ctaid=(3,8,0) tid=(1,7,0)
GPGPU-Sim PTX: 1600000 instructions simulated : ctaid=(2,13,0) tid=(2,1,0)
GPGPU-Sim uArch: cycles simulated: 4000  inst.: 1592489 (ipc=398.1) sim_rate=176943 (inst/sec) elapsed = 0:0:00:09 / Tue Apr 16 16:51:56 2019
GPGPU-Sim PTX: 1700000 instructions simulated : ctaid=(2,1,0) tid=(0,1,0)
GPGPU-Sim PTX: 1800000 instructions simulated : ctaid=(3,2,0) tid=(6,10,0)
GPGPU-Sim PTX: 1900000 instructions simulated : ctaid=(2,7,0) tid=(9,7,0)
GPGPU-Sim uArch: cycles simulated: 4500  inst.: 1967968 (ipc=437.3) sim_rate=178906 (inst/sec) elapsed = 0:0:00:11 / Tue Apr 16 16:51:58 2019
GPGPU-Sim PTX: 2000000 instructions simulated : ctaid=(1,18,0) tid=(3,10,0)
GPGPU-Sim PTX: 2100000 instructions simulated : ctaid=(4,15,0) tid=(0,2,0)
GPGPU-Sim PTX: 2200000 instructions simulated : ctaid=(2,1,0) tid=(0,12,0)
GPGPU-Sim PTX: 2300000 instructions simulated : ctaid=(0,1,0) tid=(8,5,0)
GPGPU-Sim uArch: cycles simulated: 5000  inst.: 2340909 (ipc=468.2) sim_rate=195075 (inst/sec) elapsed = 0:0:00:12 / Tue Apr 16 16:51:59 2019
GPGPU-Sim PTX: 2400000 instructions simulated : ctaid=(0,2,0) tid=(9,2,0)
GPGPU-Sim PTX: 2500000 instructions simulated : ctaid=(1,11,0) tid=(10,5,0)
GPGPU-Sim PTX: 2600000 instructions simulated : ctaid=(5,19,0) tid=(12,2,0)
GPGPU-Sim PTX: 2700000 instructions simulated : ctaid=(2,2,0) tid=(10,2,0)
GPGPU-Sim uArch: cycles simulated: 5500  inst.: 2713228 (ipc=493.3) sim_rate=208709 (inst/sec) elapsed = 0:0:00:13 / Tue Apr 16 16:52:00 2019
GPGPU-Sim PTX: 2800000 instructions simulated : ctaid=(0,13,0) tid=(7,11,0)
GPGPU-Sim PTX: 2900000 instructions simulated : ctaid=(1,18,0) tid=(6,7,0)
GPGPU-Sim PTX: 3000000 instructions simulated : ctaid=(3,14,0) tid=(8,10,0)
GPGPU-Sim uArch: cycles simulated: 6000  inst.: 3087452 (ipc=514.6) sim_rate=220532 (inst/sec) elapsed = 0:0:00:14 / Tue Apr 16 16:52:01 2019
GPGPU-Sim PTX: 3100000 instructions simulated : ctaid=(1,12,0) tid=(2,3,0)
GPGPU-Sim PTX: 3200000 instructions simulated : ctaid=(3,14,0) tid=(11,4,0)
GPGPU-Sim PTX: 3300000 instructions simulated : ctaid=(4,6,0) tid=(5,11,0)
GPGPU-Sim PTX: 3400000 instructions simulated : ctaid=(2,0,0) tid=(5,5,0)
GPGPU-Sim uArch: cycles simulated: 6500  inst.: 3460240 (ipc=532.3) sim_rate=216265 (inst/sec) elapsed = 0:0:00:16 / Tue Apr 16 16:52:03 2019
GPGPU-Sim PTX: 3500000 instructions simulated : ctaid=(2,0,0) tid=(6,5,0)
GPGPU-Sim PTX: 3600000 instructions simulated : ctaid=(2,11,0) tid=(7,3,0)
GPGPU-Sim PTX: 3700000 instructions simulated : ctaid=(2,15,0) tid=(10,11,0)
GPGPU-Sim PTX: 3800000 instructions simulated : ctaid=(4,6,0) tid=(7,0,0)
GPGPU-Sim uArch: cycles simulated: 7000  inst.: 3831694 (ipc=547.4) sim_rate=225393 (inst/sec) elapsed = 0:0:00:17 / Tue Apr 16 16:52:04 2019
GPGPU-Sim PTX: 3900000 instructions simulated : ctaid=(4,16,0) tid=(7,10,0)
GPGPU-Sim PTX: 4000000 instructions simulated : ctaid=(4,13,0) tid=(4,11,0)
GPGPU-Sim PTX: 4100000 instructions simulated : ctaid=(1,5,0) tid=(2,2,0)
GPGPU-Sim PTX: 4200000 instructions simulated : ctaid=(5,19,0) tid=(5,7,0)
GPGPU-Sim uArch: cycles simulated: 7500  inst.: 4205349 (ipc=560.7) sim_rate=233630 (inst/sec) elapsed = 0:0:00:18 / Tue Apr 16 16:52:05 2019
GPGPU-Sim PTX: 4300000 instructions simulated : ctaid=(0,18,0) tid=(2,3,0)
GPGPU-Sim PTX: 4400000 instructions simulated : ctaid=(0,11,0) tid=(4,0,0)
GPGPU-Sim PTX: 4500000 instructions simulated : ctaid=(1,16,0) tid=(11,0,0)
GPGPU-Sim uArch: cycles simulated: 8000  inst.: 4577578 (ipc=572.2) sim_rate=240925 (inst/sec) elapsed = 0:0:00:19 / Tue Apr 16 16:52:06 2019
GPGPU-Sim PTX: 4600000 instructions simulated : ctaid=(2,4,0) tid=(8,4,0)
GPGPU-Sim PTX: 4700000 instructions simulated : ctaid=(4,14,0) tid=(6,1,0)
GPGPU-Sim PTX: 4800000 instructions simulated : ctaid=(0,8,0) tid=(0,0,0)
GPGPU-Sim PTX: 4900000 instructions simulated : ctaid=(4,8,0) tid=(7,3,0)
GPGPU-Sim uArch: cycles simulated: 8500  inst.: 4951676 (ipc=582.6) sim_rate=235794 (inst/sec) elapsed = 0:0:00:21 / Tue Apr 16 16:52:08 2019
GPGPU-Sim PTX: 5000000 instructions simulated : ctaid=(5,3,0) tid=(2,9,0)
GPGPU-Sim PTX: 5100000 instructions simulated : ctaid=(2,18,0) tid=(2,7,0)
GPGPU-Sim PTX: 5200000 instructions simulated : ctaid=(4,9,0) tid=(7,4,0)
GPGPU-Sim PTX: 5300000 instructions simulated : ctaid=(2,19,0) tid=(1,5,0)
GPGPU-Sim uArch: cycles simulated: 9000  inst.: 5323805 (ipc=591.5) sim_rate=241991 (inst/sec) elapsed = 0:0:00:22 / Tue Apr 16 16:52:09 2019
GPGPU-Sim PTX: 5400000 instructions simulated : ctaid=(3,12,0) tid=(8,2,0)
GPGPU-Sim PTX: 5500000 instructions simulated : ctaid=(3,3,0) tid=(4,10,0)
GPGPU-Sim PTX: 5600000 instructions simulated : ctaid=(4,1,0) tid=(1,5,0)
GPGPU-Sim PTX: 5700000 instructions simulated : ctaid=(4,9,0) tid=(11,4,0)
GPGPU-Sim uArch: cycles simulated: 9500  inst.: 5695328 (ipc=599.5) sim_rate=247622 (inst/sec) elapsed = 0:0:00:23 / Tue Apr 16 16:52:10 2019
GPGPU-Sim PTX: 5800000 instructions simulated : ctaid=(1,14,0) tid=(6,10,0)
GPGPU-Sim PTX: 5900000 instructions simulated : ctaid=(0,14,0) tid=(10,3,0)
GPGPU-Sim PTX: 6000000 instructions simulated : ctaid=(3,19,0) tid=(9,6,0)
GPGPU-Sim uArch: cycles simulated: 10000  inst.: 6067442 (ipc=606.7) sim_rate=252810 (inst/sec) elapsed = 0:0:00:24 / Tue Apr 16 16:52:11 2019
GPGPU-Sim PTX: 6100000 instructions simulated : ctaid=(2,2,0) tid=(6,3,0)
GPGPU-Sim PTX: 6200000 instructions simulated : ctaid=(3,3,0) tid=(0,12,0)
GPGPU-Sim PTX: 6300000 instructions simulated : ctaid=(2,5,0) tid=(7,3,0)
GPGPU-Sim PTX: 6400000 instructions simulated : ctaid=(4,11,0) tid=(1,3,0)
GPGPU-Sim uArch: cycles simulated: 10500  inst.: 6434603 (ipc=612.8) sim_rate=247484 (inst/sec) elapsed = 0:0:00:26 / Tue Apr 16 16:52:13 2019
GPGPU-Sim PTX: 6500000 instructions simulated : ctaid=(2,10,0) tid=(10,0,0)
GPGPU-Sim PTX: 6600000 instructions simulated : ctaid=(1,14,0) tid=(2,4,0)
GPGPU-Sim PTX: 6700000 instructions simulated : ctaid=(0,5,0) tid=(3,8,0)
GPGPU-Sim uArch: cycles simulated: 11000  inst.: 6779383 (ipc=616.3) sim_rate=251088 (inst/sec) elapsed = 0:0:00:27 / Tue Apr 16 16:52:14 2019
GPGPU-Sim PTX: 6800000 instructions simulated : ctaid=(0,2,0) tid=(7,3,0)
GPGPU-Sim PTX: 6900000 instructions simulated : ctaid=(2,17,0) tid=(2,6,0)
GPGPU-Sim PTX: 7000000 instructions simulated : ctaid=(5,1,0) tid=(5,5,0)
GPGPU-Sim uArch: cycles simulated: 11500  inst.: 7075413 (ipc=615.3) sim_rate=243979 (inst/sec) elapsed = 0:0:00:29 / Tue Apr 16 16:52:16 2019
GPGPU-Sim PTX: 7100000 instructions simulated : ctaid=(0,10,0) tid=(9,11,0)
GPGPU-Sim uArch: Shader 13 finished CTA #0 (11525,0), 7 CTAs running
GPGPU-Sim uArch: core: 13, cta: 0 initialized @(11526,0)
GPGPU-Sim PTX: 7200000 instructions simulated : ctaid=(5,5,0) tid=(11,0,0)
GPGPU-Sim uArch: Shader 11 finished CTA #1 (11718,0), 7 CTAs running
GPGPU-Sim uArch: core: 11, cta: 1 initialized @(11719,0)
GPGPU-Sim uArch: Shader 11 finished CTA #0 (11733,0), 7 CTAs running
GPGPU-Sim uArch: core: 11, cta: 0 initialized @(11734,0)
GPGPU-Sim PTX: 7300000 instructions simulated : ctaid=(0,11,0) tid=(2,1,0)
GPGPU-Sim uArch: Shader 13 finished CTA #1 (11923,0), 7 CTAs running
GPGPU-Sim uArch: core: 13, cta: 1 initialized @(11924,0)
GPGPU-Sim uArch: cycles simulated: 12000  inst.: 7338312 (ipc=611.5) sim_rate=244610 (inst/sec) elapsed = 0:0:00:30 / Tue Apr 16 16:52:17 2019
GPGPU-Sim PTX: 7400000 instructions simulated : ctaid=(3,19,0) tid=(1,12,0)
GPGPU-Sim uArch: Shader 8 finished CTA #0 (12081,0), 7 CTAs running
GPGPU-Sim uArch: core:  8, cta: 0 initialized @(12082,0)
GPGPU-Sim uArch: Shader 1 finished CTA #1 (12171,0), 7 CTAs running
GPGPU-Sim uArch: core:  1, cta: 1 initialized @(12172,0)
GPGPU-Sim uArch: Shader 9 finished CTA #0 (12172,0), 7 CTAs running
GPGPU-Sim uArch: core:  9, cta: 0 initialized @(12173,0)
GPGPU-Sim uArch: Shader 11 finished CTA #2 (12174,0), 7 CTAs running
GPGPU-Sim uArch: core: 11, cta: 2 initialized @(12175,0)
GPGPU-Sim uArch: Shader 3 finished CTA #0 (12213,0), 7 CTAs running
GPGPU-Sim uArch: core:  3, cta: 0 initialized @(12214,0)
GPGPU-Sim uArch: Shader 7 finished CTA #0 (12222,0), 7 CTAs running
GPGPU-Sim uArch: core:  7, cta: 0 initialized @(12223,0)
GPGPU-Sim uArch: Shader 3 finished CTA #1 (12226,0), 7 CTAs running
GPGPU-Sim uArch: core:  3, cta: 1 initialized @(12227,0)
GPGPU-Sim PTX: 7500000 instructions simulated : ctaid=(0,17,0) tid=(12,0,0)
GPGPU-Sim uArch: Shader 6 finished CTA #1 (12237,0), 7 CTAs running
GPGPU-Sim uArch: core:  6, cta: 1 initialized @(12238,0)
GPGPU-Sim uArch: Shader 10 finished CTA #1 (12244,0), 7 CTAs running
GPGPU-Sim uArch: core: 10, cta: 1 initialized @(12245,0)
GPGPU-Sim uArch: Shader 6 finished CTA #0 (12254,0), 7 CTAs running
GPGPU-Sim uArch: core:  6, cta: 0 initialized @(12255,0)
GPGPU-Sim uArch: Shader 2 finished CTA #0 (12267,0), 7 CTAs running
GPGPU-Sim uArch: Shader 10 finished CTA #0 (12267,0), 7 CTAs running
GPGPU-Sim uArch: core: 10, cta: 0 initialized @(12268,0)
GPGPU-Sim uArch: core:  2, cta: 0 initialized @(12268,0)
GPGPU-Sim uArch: Shader 12 finished CTA #0 (12271,0), 7 CTAs running
GPGPU-Sim uArch: core: 12, cta: 0 initialized @(12272,0)
GPGPU-Sim uArch: Shader 2 finished CTA #1 (12274,0), 7 CTAs running
GPGPU-Sim uArch: core:  2, cta: 1 initialized @(12275,0)
GPGPU-Sim uArch: Shader 14 finished CTA #0 (12275,0), 7 CTAs running
GPGPU-Sim uArch: core: 14, cta: 0 initialized @(12276,0)
GPGPU-Sim uArch: Shader 8 finished CTA #2 (12299,0), 7 CTAs running
GPGPU-Sim uArch: core:  8, cta: 2 initialized @(12300,0)
GPGPU-Sim uArch: Shader 9 finished CTA #1 (12304,0), 7 CTAs running
GPGPU-Sim uArch: core:  9, cta: 1 initialized @(12305,0)
GPGPU-Sim uArch: Shader 1 finished CTA #2 (12318,0), 7 CTAs running
GPGPU-Sim uArch: core:  1, cta: 2 initialized @(12319,0)
GPGPU-Sim uArch: Shader 5 finished CTA #0 (12329,0), 7 CTAs running
GPGPU-Sim uArch: core:  5, cta: 0 initialized @(12330,0)
GPGPU-Sim uArch: Shader 8 finished CTA #1 (12332,0), 7 CTAs running
GPGPU-Sim uArch: core:  8, cta: 1 initialized @(12333,0)
GPGPU-Sim uArch: Shader 13 finished CTA #2 (12340,0), 7 CTAs running
GPGPU-Sim uArch: core: 13, cta: 2 initialized @(12341,0)
GPGPU-Sim uArch: Shader 12 finished CTA #1 (12348,0), 7 CTAs running
GPGPU-Sim uArch: core: 12, cta: 1 initialized @(12349,0)
GPGPU-Sim uArch: Shader 1 finished CTA #0 (12385,0), 7 CTAs running
GPGPU-Sim uArch: core:  1, cta: 0 initialized @(12386,0)
GPGPU-Sim uArch: Shader 0 finished CTA #0 (12392,0), 7 CTAs running
GPGPU-Sim PTX: 7600000 instructions simulated : ctaid=(3,14,0) tid=(5,9,0)
GPGPU-Sim uArch: core:  0, cta: 0 initialized @(12393,0)
GPGPU-Sim uArch: Shader 5 finished CTA #1 (12394,0), 7 CTAs running
GPGPU-Sim uArch: core:  5, cta: 1 initialized @(12395,0)
GPGPU-Sim uArch: Shader 9 finished CTA #2 (12397,0), 7 CTAs running
GPGPU-Sim uArch: core:  9, cta: 2 initialized @(12398,0)
GPGPU-Sim uArch: Shader 6 finished CTA #2 (12400,0), 7 CTAs running
GPGPU-Sim uArch: core:  6, cta: 2 initialized @(12401,0)
GPGPU-Sim uArch: Shader 4 finished CTA #0 (12401,0), 7 CTAs running
GPGPU-Sim uArch: core:  4, cta: 0 initialized @(12402,0)
GPGPU-Sim uArch: Shader 14 finished CTA #1 (12402,0), 7 CTAs running
GPGPU-Sim uArch: core: 14, cta: 1 initialized @(12403,0)
GPGPU-Sim uArch: Shader 12 finished CTA #2 (12424,0), 7 CTAs running
GPGPU-Sim uArch: core: 12, cta: 2 initialized @(12425,0)
GPGPU-Sim uArch: Shader 4 finished CTA #1 (12450,0), 7 CTAs running
GPGPU-Sim uArch: core:  4, cta: 1 initialized @(12451,0)
GPGPU-Sim uArch: Shader 2 finished CTA #2 (12491,0), 7 CTAs running
GPGPU-Sim uArch: core:  2, cta: 2 initialized @(12492,0)
GPGPU-Sim uArch: cycles simulated: 12500  inst.: 7643130 (ipc=611.5) sim_rate=238847 (inst/sec) elapsed = 0:0:00:32 / Tue Apr 16 16:52:19 2019
GPGPU-Sim uArch: Shader 3 finished CTA #2 (12513,0), 7 CTAs running
GPGPU-Sim uArch: core:  3, cta: 2 initialized @(12514,0)
GPGPU-Sim PTX: 7700000 instructions simulated : ctaid=(3,17,0) tid=(5,2,0)
GPGPU-Sim uArch: Shader 14 finished CTA #2 (12554,0), 7 CTAs running
GPGPU-Sim uArch: core: 14, cta: 2 initialized @(12555,0)
GPGPU-Sim uArch: Shader 10 finished CTA #2 (12559,0), 7 CTAs running
GPGPU-Sim uArch: core: 10, cta: 2 initialized @(12560,0)
GPGPU-Sim uArch: Shader 0 finished CTA #1 (12562,0), 7 CTAs running
GPGPU-Sim uArch: core:  0, cta: 1 initialized @(12563,0)
GPGPU-Sim uArch: Shader 7 finished CTA #1 (12597,0), 7 CTAs running
GPGPU-Sim uArch: core:  7, cta: 1 initialized @(12598,0)
GPGPU-Sim uArch: Shader 4 finished CTA #2 (12613,0), 7 CTAs running
GPGPU-Sim uArch: core:  4, cta: 2 initialized @(12614,0)
GPGPU-Sim uArch: Shader 5 finished CTA #2 (12623,0), 7 CTAs running
GPGPU-Sim uArch: core:  5, cta: 2 initialized @(12624,0)
GPGPU-Sim uArch: Shader 11 finished CTA #3 (12702,0), 7 CTAs running
GPGPU-Sim uArch: core: 11, cta: 3 initialized @(12703,0)
GPGPU-Sim PTX: 7800000 instructions simulated : ctaid=(4,20,0) tid=(0,11,0)
GPGPU-Sim uArch: Shader 7 finished CTA #2 (12708,0), 7 CTAs running
GPGPU-Sim uArch: core:  7, cta: 2 initialized @(12709,0)
GPGPU-Sim uArch: Shader 3 finished CTA #3 (12715,0), 7 CTAs running
GPGPU-Sim uArch: core:  3, cta: 3 initialized @(12716,0)
GPGPU-Sim uArch: Shader 13 finished CTA #3 (12757,0), 7 CTAs running
GPGPU-Sim uArch: core: 13, cta: 3 initialized @(12758,0)
GPGPU-Sim uArch: Shader 0 finished CTA #2 (12777,0), 7 CTAs running
GPGPU-Sim uArch: core:  0, cta: 2 initialized @(12778,0)
GPGPU-Sim uArch: Shader 6 finished CTA #3 (12823,0), 7 CTAs running
GPGPU-Sim uArch: Shader 1 finished CTA #3 (12845,0), 7 CTAs running
GPGPU-Sim uArch: Shader 10 finished CTA #3 (12856,0), 7 CTAs running
GPGPU-Sim uArch: Shader 14 finished CTA #3 (12857,0), 7 CTAs running
GPGPU-Sim PTX: 7900000 instructions simulated : ctaid=(4,17,0) tid=(8,11,0)
GPGPU-Sim uArch: Shader 2 finished CTA #3 (12878,0), 7 CTAs running
GPGPU-Sim uArch: Shader 12 finished CTA #3 (12940,0), 7 CTAs running
GPGPU-Sim uArch: Shader 4 finished CTA #3 (12955,0), 7 CTAs running
GPGPU-Sim uArch: cycles simulated: 13000  inst.: 7959640 (ipc=612.3) sim_rate=234107 (inst/sec) elapsed = 0:0:00:34 / Tue Apr 16 16:52:21 2019
GPGPU-Sim PTX: 8000000 instructions simulated : ctaid=(2,15,0) tid=(2,4,0)
GPGPU-Sim uArch: Shader 5 finished CTA #3 (13038,0), 7 CTAs running
GPGPU-Sim uArch: Shader 11 finished CTA #4 (13051,0), 7 CTAs running
GPGPU-Sim uArch: Shader 12 finished CTA #4 (13054,0), 6 CTAs running
GPGPU-Sim uArch: Shader 8 finished CTA #3 (13123,0), 7 CTAs running
GPGPU-Sim uArch: Shader 9 finished CTA #3 (13123,0), 7 CTAs running
GPGPU-Sim uArch: Shader 9 finished CTA #4 (13123,0), 6 CTAs running
GPGPU-Sim uArch: Shader 13 finished CTA #4 (13149,0), 7 CTAs running
GPGPU-Sim PTX: 8100000 instructions simulated : ctaid=(1,19,0) tid=(0,8,0)
GPGPU-Sim uArch: Shader 10 finished CTA #4 (13173,0), 6 CTAs running
GPGPU-Sim uArch: Shader 1 finished CTA #4 (13176,0), 6 CTAs running
GPGPU-Sim uArch: Shader 0 finished CTA #3 (13223,0), 7 CTAs running
GPGPU-Sim uArch: Shader 8 finished CTA #4 (13226,0), 6 CTAs running
GPGPU-Sim uArch: Shader 6 finished CTA #4 (13239,0), 6 CTAs running
GPGPU-Sim uArch: Shader 3 finished CTA #4 (13241,0), 7 CTAs running
GPGPU-Sim uArch: Shader 2 finished CTA #4 (13274,0), 6 CTAs running
GPGPU-Sim uArch: Shader 14 finished CTA #4 (13285,0), 6 CTAs running
GPGPU-Sim PTX: 8200000 instructions simulated : ctaid=(3,16,0) tid=(6,2,0)
GPGPU-Sim uArch: Shader 4 finished CTA #4 (13394,0), 6 CTAs running
GPGPU-Sim uArch: Shader 11 finished CTA #5 (13421,0), 6 CTAs running
GPGPU-Sim PTX: 8300000 instructions simulated : ctaid=(3,15,0) tid=(1,11,0)
GPGPU-Sim uArch: cycles simulated: 13500  inst.: 8295444 (ipc=614.5) sim_rate=237012 (inst/sec) elapsed = 0:0:00:35 / Tue Apr 16 16:52:22 2019
GPGPU-Sim uArch: Shader 7 finished CTA #3 (13524,0), 7 CTAs running
GPGPU-Sim uArch: Shader 0 finished CTA #4 (13560,0), 6 CTAs running
GPGPU-Sim uArch: Shader 5 finished CTA #4 (13588,0), 6 CTAs running
GPGPU-Sim uArch: Shader 7 finished CTA #4 (13590,0), 6 CTAs running
GPGPU-Sim PTX: 8400000 instructions simulated : ctaid=(1,24,0) tid=(9,4,0)
GPGPU-Sim uArch: Shader 12 finished CTA #5 (13629,0), 5 CTAs running
GPGPU-Sim uArch: Shader 9 finished CTA #5 (13655,0), 5 CTAs running
GPGPU-Sim uArch: Shader 14 finished CTA #5 (13668,0), 5 CTAs running
GPGPU-Sim uArch: Shader 10 finished CTA #5 (13670,0), 5 CTAs running
GPGPU-Sim uArch: Shader 6 finished CTA #5 (13697,0), 5 CTAs running
GPGPU-Sim uArch: Shader 13 finished CTA #5 (13703,0), 6 CTAs running
GPGPU-Sim uArch: Shader 3 finished CTA #5 (13718,0), 6 CTAs running
GPGPU-Sim PTX: 8500000 instructions simulated : ctaid=(1,24,0) tid=(2,6,0)
GPGPU-Sim uArch: Shader 5 finished CTA #5 (13742,0), 5 CTAs running
GPGPU-Sim uArch: Shader 1 finished CTA #5 (13803,0), 5 CTAs running
GPGPU-Sim uArch: Shader 4 finished CTA #5 (13839,0), 5 CTAs running
GPGPU-Sim uArch: Shader 0 finished CTA #5 (13847,0), 5 CTAs running
GPGPU-Sim uArch: Shader 2 finished CTA #5 (13847,0), 5 CTAs running
GPGPU-Sim PTX: 8600000 instructions simulated : ctaid=(3,26,0) tid=(10,1,0)
GPGPU-Sim uArch: cycles simulated: 14000  inst.: 8646544 (ipc=617.6) sim_rate=233690 (inst/sec) elapsed = 0:0:00:37 / Tue Apr 16 16:52:24 2019
GPGPU-Sim uArch: Shader 8 finished CTA #5 (14022,0), 5 CTAs running
GPGPU-Sim PTX: 8700000 instructions simulated : ctaid=(5,22,0) tid=(1,12,0)
GPGPU-Sim PTX: 8800000 instructions simulated : ctaid=(5,23,0) tid=(1,7,0)
GPGPU-Sim uArch: Shader 7 finished CTA #5 (14204,0), 5 CTAs running
GPGPU-Sim uArch: Shader 8 finished CTA #6 (14222,0), 4 CTAs running
GPGPU-Sim uArch: Shader 4 finished CTA #6 (14265,0), 4 CTAs running
GPGPU-Sim PTX: 8900000 instructions simulated : ctaid=(3,18,0) tid=(4,9,0)
GPGPU-Sim uArch: Shader 2 finished CTA #6 (14324,0), 4 CTAs running
GPGPU-Sim uArch: Shader 6 finished CTA #6 (14338,0), 4 CTAs running
GPGPU-Sim uArch: Shader 1 finished CTA #6 (14342,0), 4 CTAs running
GPGPU-Sim uArch: Shader 12 finished CTA #6 (14367,0), 4 CTAs running
GPGPU-Sim PTX: 9000000 instructions simulated : ctaid=(4,21,0) tid=(0,5,0)
GPGPU-Sim uArch: Shader 9 finished CTA #6 (14482,0), 4 CTAs running
GPGPU-Sim uArch: cycles simulated: 14500  inst.: 9003836 (ipc=621.0) sim_rate=230867 (inst/sec) elapsed = 0:0:00:39 / Tue Apr 16 16:52:26 2019
GPGPU-Sim uArch: Shader 10 finished CTA #6 (14526,0), 4 CTAs running
GPGPU-Sim PTX: 9100000 instructions simulated : ctaid=(3,26,0) tid=(0,1,0)
GPGPU-Sim uArch: Shader 14 finished CTA #6 (14667,0), 4 CTAs running
GPGPU-Sim uArch: Shader 7 finished CTA #6 (14699,0), 4 CTAs running
GPGPU-Sim PTX: 9200000 instructions simulated : ctaid=(2,21,0) tid=(9,1,0)
GPGPU-Sim uArch: Shader 5 finished CTA #6 (14728,0), 4 CTAs running
GPGPU-Sim uArch: Shader 0 finished CTA #6 (14737,0), 4 CTAs running
GPGPU-Sim uArch: Shader 11 finished CTA #6 (14765,0), 5 CTAs running
GPGPU-Sim PTX: 9300000 instructions simulated : ctaid=(5,26,0) tid=(7,7,0)
GPGPU-Sim uArch: Shader 3 finished CTA #6 (14912,0), 5 CTAs running
GPGPU-Sim PTX: 9400000 instructions simulated : ctaid=(4,26,0) tid=(11,1,0)
GPGPU-Sim uArch: cycles simulated: 15000  inst.: 9368398 (ipc=624.6) sim_rate=234209 (inst/sec) elapsed = 0:0:00:40 / Tue Apr 16 16:52:27 2019
GPGPU-Sim uArch: Shader 0 finished CTA #7 (15059,0), 3 CTAs running
GPGPU-Sim uArch: Shader 13 finished CTA #6 (15073,0), 5 CTAs running
GPGPU-Sim uArch: Shader 10 finished CTA #7 (15110,0), 3 CTAs running
GPGPU-Sim uArch: Shader 4 finished CTA #7 (15124,0), 3 CTAs running
GPGPU-Sim PTX: 9500000 instructions simulated : ctaid=(1,25,0) tid=(4,1,0)
GPGPU-Sim uArch: Shader 5 finished CTA #7 (15167,0), 3 CTAs running
GPGPU-Sim uArch: Shader 6 finished CTA #7 (15232,0), 3 CTAs running
GPGPU-Sim uArch: Shader 14 finished CTA #7 (15232,0), 3 CTAs running
GPGPU-Sim uArch: Shader 12 finished CTA #7 (15258,0), 3 CTAs running
GPGPU-Sim PTX: 9600000 instructions simulated : ctaid=(4,27,0) tid=(9,11,0)
GPGPU-Sim uArch: Shader 9 finished CTA #7 (15396,0), 3 CTAs running
GPGPU-Sim PTX: 9700000 instructions simulated : ctaid=(4,25,0) tid=(10,6,0)
GPGPU-Sim uArch: cycles simulated: 15500  inst.: 9735825 (ipc=628.1) sim_rate=231805 (inst/sec) elapsed = 0:0:00:42 / Tue Apr 16 16:52:29 2019
GPGPU-Sim PTX: 9800000 instructions simulated : ctaid=(2,26,0) tid=(7,2,0)
GPGPU-Sim uArch: Shader 7 finished CTA #7 (15560,0), 3 CTAs running
GPGPU-Sim uArch: Shader 1 finished CTA #7 (15600,0), 3 CTAs running
GPGPU-Sim PTX: 9900000 instructions simulated : ctaid=(1,21,0) tid=(9,4,0)
GPGPU-Sim uArch: Shader 2 finished CTA #7 (15768,0), 3 CTAs running
GPGPU-Sim PTX: 10000000 instructions simulated : ctaid=(1,26,0) tid=(12,8,0)
GPGPU-Sim uArch: Shader 8 finished CTA #7 (15859,0), 3 CTAs running
GPGPU-Sim PTX: 10100000 instructions simulated : ctaid=(1,22,0) tid=(5,5,0)
GPGPU-Sim uArch: Shader 11 finished CTA #7 (15952,0), 4 CTAs running
GPGPU-Sim uArch: Shader 13 finished CTA #7 (15958,0), 4 CTAs running
GPGPU-Sim uArch: cycles simulated: 16000  inst.: 10106570 (ipc=631.7) sim_rate=235036 (inst/sec) elapsed = 0:0:00:43 / Tue Apr 16 16:52:30 2019
GPGPU-Sim PTX: 10200000 instructions simulated : ctaid=(3,21,0) tid=(11,9,0)
GPGPU-Sim PTX: 10300000 instructions simulated : ctaid=(1,21,0) tid=(12,4,0)
GPGPU-Sim uArch: Shader 3 finished CTA #7 (16322,0), 4 CTAs running
GPGPU-Sim PTX: 10400000 instructions simulated : ctaid=(5,22,0) tid=(7,8,0)
GPGPU-Sim PTX: 10500000 instructions simulated : ctaid=(2,25,0) tid=(6,9,0)
GPGPU-Sim uArch: cycles simulated: 16500  inst.: 10473247 (ipc=634.7) sim_rate=232738 (inst/sec) elapsed = 0:0:00:45 / Tue Apr 16 16:52:32 2019
GPGPU-Sim PTX: 10600000 instructions simulated : ctaid=(4,24,0) tid=(3,3,0)
GPGPU-Sim PTX: 10700000 instructions simulated : ctaid=(1,27,0) tid=(4,0,0)
GPGPU-Sim PTX: 10800000 instructions simulated : ctaid=(4,26,0) tid=(3,3,0)
GPGPU-Sim uArch: cycles simulated: 17000  inst.: 10824350 (ipc=636.7) sim_rate=235311 (inst/sec) elapsed = 0:0:00:46 / Tue Apr 16 16:52:33 2019
GPGPU-Sim PTX: 10900000 instructions simulated : ctaid=(3,25,0) tid=(12,1,0)
GPGPU-Sim PTX: 11000000 instructions simulated : ctaid=(1,27,0) tid=(2,9,0)
GPGPU-Sim PTX: 11100000 instructions simulated : ctaid=(0,27,0) tid=(0,0,0)
GPGPU-Sim uArch: cycles simulated: 17500  inst.: 11129839 (ipc=636.0) sim_rate=236805 (inst/sec) elapsed = 0:0:00:47 / Tue Apr 16 16:52:34 2019
GPGPU-Sim PTX: 11200000 instructions simulated : ctaid=(1,20,0) tid=(9,9,0)
GPGPU-Sim uArch: Shader 1 finished CTA #1 (17709,0), 2 CTAs running
GPGPU-Sim uArch: Shader 5 finished CTA #0 (17751,0), 2 CTAs running
GPGPU-Sim PTX: 11300000 instructions simulated : ctaid=(4,26,0) tid=(0,11,0)
GPGPU-Sim uArch: Shader 2 finished CTA #0 (17799,0), 2 CTAs running
GPGPU-Sim uArch: Shader 10 finished CTA #1 (17807,0), 2 CTAs running
GPGPU-Sim uArch: Shader 8 finished CTA #0 (17823,0), 2 CTAs running
GPGPU-Sim uArch: Shader 14 finished CTA #0 (17899,0), 2 CTAs running
GPGPU-Sim uArch: Shader 12 finished CTA #0 (17961,0), 2 CTAs running
GPGPU-Sim PTX: 11400000 instructions simulated : ctaid=(5,27,0) tid=(10,9,0)
GPGPU-Sim uArch: cycles simulated: 18000  inst.: 11363142 (ipc=631.3) sim_rate=236732 (inst/sec) elapsed = 0:0:00:48 / Tue Apr 16 16:52:35 2019
GPGPU-Sim uArch: Shader 6 finished CTA #1 (18036,0), 2 CTAs running
GPGPU-Sim uArch: Shader 4 finished CTA #0 (18045,0), 2 CTAs running
GPGPU-Sim uArch: Shader 1 finished CTA #2 (18121,0), 1 CTAs running
GPGPU-Sim uArch: Shader 10 finished CTA #0 (18126,0), 1 CTAs running
GPGPU-Sim uArch: Shader 9 finished CTA #0 (18162,0), 2 CTAs running
GPGPU-Sim uArch: Shader 7 finished CTA #0 (18169,0), 2 CTAs running
GPGPU-Sim uArch: Shader 14 finished CTA #1 (18226,0), 1 CTAs running
GPGPU-Sim uArch: Shader 8 finished CTA #2 (18252,0), 1 CTAs running
GPGPU-Sim uArch: Shader 12 finished CTA #1 (18264,0), 1 CTAs running
GPGPU-Sim uArch: Shader 2 finished CTA #1 (18269,0), 1 CTAs running
GPGPU-Sim PTX: 11500000 instructions simulated : ctaid=(2,24,0) tid=(3,10,0)
GPGPU-Sim uArch: Shader 9 finished CTA #1 (18310,0), 1 CTAs running
GPGPU-Sim uArch: Shader 6 finished CTA #0 (18316,0), 1 CTAs running
GPGPU-Sim uArch: Shader 0 finished CTA #0 (18357,0), 2 CTAs running
GPGPU-Sim uArch: Shader 4 finished CTA #1 (18399,0), 1 CTAs running
GPGPU-Sim uArch: Shader 5 finished CTA #1 (18405,0), 1 CTAs running
GPGPU-Sim uArch: cycles simulated: 18500  inst.: 11521968 (ipc=622.8) sim_rate=235142 (inst/sec) elapsed = 0:0:00:49 / Tue Apr 16 16:52:36 2019
GPGPU-Sim uArch: Shader 0 finished CTA #1 (18500,0), 1 CTAs running
GPGPU-Sim uArch: Shader 7 finished CTA #1 (18589,0), 1 CTAs running
GPGPU-Sim uArch: Shader 13 finished CTA #0 (18637,0), 3 CTAs running
GPGPU-Sim PTX: 11600000 instructions simulated : ctaid=(0,27,0) tid=(8,8,0)
GPGPU-Sim uArch: Shader 11 finished CTA #1 (18730,0), 3 CTAs running
GPGPU-Sim uArch: Shader 11 finished CTA #0 (18952,0), 2 CTAs running
GPGPU-Sim uArch: Shader 3 finished CTA #0 (18984,0), 3 CTAs running
GPGPU-Sim uArch: Shader 13 finished CTA #1 (19130,0), 2 CTAs running
GPGPU-Sim uArch: Shader 3 finished CTA #1 (19240,0), 2 CTAs running
GPGPU-Sim uArch: Shader 6 finished CTA #2 (19253,0), 0 CTAs running
GPGPU-Sim uArch: Shader 6 empty (release kernel 1 '_Z17executeFirstLayerPfS_S_').
GPGPU-Sim uArch: Shader 9 finished CTA #2 (19268,0), 0 CTAs running
GPGPU-Sim uArch: Shader 9 empty (release kernel 1 '_Z17executeFirstLayerPfS_S_').
GPGPU-Sim uArch: Shader 8 finished CTA #1 (19287,0), 0 CTAs running
GPGPU-Sim uArch: Shader 8 empty (release kernel 1 '_Z17executeFirstLayerPfS_S_').
GPGPU-Sim uArch: Shader 5 finished CTA #2 (19297,0), 0 CTAs running
GPGPU-Sim uArch: Shader 5 empty (release kernel 1 '_Z17executeFirstLayerPfS_S_').
GPGPU-Sim uArch: Shader 12 finished CTA #2 (19307,0), 0 CTAs running
GPGPU-Sim uArch: Shader 12 empty (release kernel 1 '_Z17executeFirstLayerPfS_S_').
GPGPU-Sim uArch: Shader 10 finished CTA #2 (19376,0), 0 CTAs running
GPGPU-Sim uArch: Shader 10 empty (release kernel 1 '_Z17executeFirstLayerPfS_S_').
GPGPU-Sim uArch: Shader 4 finished CTA #2 (19402,0), 0 CTAs running
GPGPU-Sim uArch: Shader 4 empty (release kernel 1 '_Z17executeFirstLayerPfS_S_').
GPGPU-Sim uArch: Shader 2 finished CTA #2 (19418,0), 0 CTAs running
GPGPU-Sim uArch: Shader 2 empty (release kernel 1 '_Z17executeFirstLayerPfS_S_').
GPGPU-Sim uArch: Shader 14 finished CTA #2 (19459,0), 0 CTAs running
GPGPU-Sim uArch: Shader 14 empty (release kernel 1 '_Z17executeFirstLayerPfS_S_').
GPGPU-Sim uArch: Shader 7 finished CTA #2 (19468,0), 0 CTAs running
GPGPU-Sim uArch: Shader 7 empty (release kernel 1 '_Z17executeFirstLayerPfS_S_').
GPGPU-Sim uArch: cycles simulated: 19500  inst.: 11661350 (ipc=598.0) sim_rate=233227 (inst/sec) elapsed = 0:0:00:50 / Tue Apr 16 16:52:37 2019
GPGPU-Sim PTX: 11700000 instructions simulated : ctaid=(1,27,0) tid=(10,11,0)
GPGPU-Sim uArch: Shader 1 finished CTA #0 (19509,0), 0 CTAs running
GPGPU-Sim uArch: Shader 1 empty (release kernel 1 '_Z17executeFirstLayerPfS_S_').
GPGPU-Sim uArch: Shader 0 finished CTA #2 (19526,0), 0 CTAs running
GPGPU-Sim uArch: Shader 0 empty (release kernel 1 '_Z17executeFirstLayerPfS_S_').
GPGPU-Sim uArch: Shader 13 finished CTA #2 (19890,0), 1 CTAs running
GPGPU-Sim uArch: Shader 11 finished CTA #2 (19894,0), 1 CTAs running
GPGPU-Sim uArch: Shader 3 finished CTA #2 (20003,0), 1 CTAs running
GPGPU-Sim uArch: Shader 11 finished CTA #3 (20632,0), 0 CTAs running
GPGPU-Sim uArch: Shader 11 empty (release kernel 1 '_Z17executeFirstLayerPfS_S_').
GPGPU-Sim uArch: Shader 13 finished CTA #3 (20839,0), 0 CTAs running
GPGPU-Sim uArch: Shader 13 empty (release kernel 1 '_Z17executeFirstLayerPfS_S_').
GPGPU-Sim uArch: Shader 3 finished CTA #3 (20886,0), 0 CTAs running
GPGPU-Sim uArch: Shader 3 empty (release kernel 1 '_Z17executeFirstLayerPfS_S_').
GPGPU-Sim uArch: GPU detected kernel '_Z17executeFirstLayerPfS_S_' finished on shader 3.
kernel_name = _Z17executeFirstLayerPfS_S_ 
kernel_launch_uid = 1 
gpu_sim_cycle = 20887
gpu_sim_insn = 11694074
gpu_ipc =     559.8733
gpu_tot_sim_cycle = 20887
gpu_tot_sim_insn = 11694074
gpu_tot_ipc =     559.8733
gpu_tot_issued_cta = 0
gpu_stall_dramfull = 10363
gpu_stall_icnt2sh    = 20343
gpu_total_sim_rate=233881

========= Core cache stats =========
L1I_cache:
	L1I_total_cache_accesses = 245095
	L1I_total_cache_misses = 1215
	L1I_total_cache_miss_rate = 0.0050
	L1I_total_cache_pending_hits = 0
	L1I_total_cache_reservation_fails = 4140
L1D_cache:
	L1D_cache_core[0]: Access = 9387, Miss = 438, Miss_rate = 0.047, Pending_hits = 35, Reservation_fails = 1509
	L1D_cache_core[1]: Access = 9406, Miss = 422, Miss_rate = 0.045, Pending_hits = 31, Reservation_fails = 1354
	L1D_cache_core[2]: Access = 9353, Miss = 402, Miss_rate = 0.043, Pending_hits = 33, Reservation_fails = 1390
	L1D_cache_core[3]: Access = 10243, Miss = 430, Miss_rate = 0.042, Pending_hits = 30, Reservation_fails = 1471
	L1D_cache_core[4]: Access = 9362, Miss = 399, Miss_rate = 0.043, Pending_hits = 39, Reservation_fails = 1436
	L1D_cache_core[5]: Access = 9402, Miss = 421, Miss_rate = 0.045, Pending_hits = 33, Reservation_fails = 1477
	L1D_cache_core[6]: Access = 9380, Miss = 427, Miss_rate = 0.046, Pending_hits = 29, Reservation_fails = 1374
	L1D_cache_core[7]: Access = 9360, Miss = 549, Miss_rate = 0.059, Pending_hits = 33, Reservation_fails = 1626
	L1D_cache_core[8]: Access = 9376, Miss = 499, Miss_rate = 0.053, Pending_hits = 42, Reservation_fails = 1490
	L1D_cache_core[9]: Access = 9398, Miss = 504, Miss_rate = 0.054, Pending_hits = 31, Reservation_fails = 1471
	L1D_cache_core[10]: Access = 9299, Miss = 416, Miss_rate = 0.045, Pending_hits = 31, Reservation_fails = 1390
	L1D_cache_core[11]: Access = 10245, Miss = 457, Miss_rate = 0.045, Pending_hits = 38, Reservation_fails = 1337
	L1D_cache_core[12]: Access = 9351, Miss = 439, Miss_rate = 0.047, Pending_hits = 30, Reservation_fails = 1376
	L1D_cache_core[13]: Access = 10280, Miss = 480, Miss_rate = 0.047, Pending_hits = 26, Reservation_fails = 1483
	L1D_cache_core[14]: Access = 9360, Miss = 471, Miss_rate = 0.050, Pending_hits = 41, Reservation_fails = 1424
	L1D_total_cache_accesses = 143202
	L1D_total_cache_misses = 6754
	L1D_total_cache_miss_rate = 0.0472
	L1D_total_cache_pending_hits = 502
	L1D_total_cache_reservation_fails = 21608
	L1D_cache_data_port_util = 0.461
	L1D_cache_fill_port_util = 0.017
L1C_cache:
	L1C_total_cache_accesses = 28224
	L1C_total_cache_misses = 990
	L1C_total_cache_miss_rate = 0.0351
	L1C_total_cache_pending_hits = 0
	L1C_total_cache_reservation_fails = 5136
L1T_cache:
	L1T_total_cache_accesses = 0
	L1T_total_cache_misses = 0
	L1T_total_cache_pending_hits = 0
	L1T_total_cache_reservation_fails = 0

Total_core_cache_stats:
	Total_core_cache_stats_breakdown[GLOBAL_ACC_R][HIT] = 135946
	Total_core_cache_stats_breakdown[GLOBAL_ACC_R][HIT_RESERVED] = 502
	Total_core_cache_stats_breakdown[GLOBAL_ACC_R][MISS] = 4894
	Total_core_cache_stats_breakdown[GLOBAL_ACC_R][RESERVATION_FAIL] = 21592
	Total_core_cache_stats_breakdown[CONST_ACC_R][HIT] = 27234
	Total_core_cache_stats_breakdown[CONST_ACC_R][MISS] = 990
	Total_core_cache_stats_breakdown[CONST_ACC_R][RESERVATION_FAIL] = 5136
	Total_core_cache_stats_breakdown[GLOBAL_ACC_W][MISS] = 1860
	Total_core_cache_stats_breakdown[GLOBAL_ACC_W][RESERVATION_FAIL] = 16
	Total_core_cache_stats_breakdown[INST_ACC_R][HIT] = 243880
	Total_core_cache_stats_breakdown[INST_ACC_R][MISS] = 1215
	Total_core_cache_stats_breakdown[INST_ACC_R][RESERVATION_FAIL] = 4140
Shader 0 warp_id issue ditsribution:
warp_id:
0, 1, 2, 3, 4, 5, 6, 7, 8, 9, 10, 11, 12, 13, 14, 15, 16, 17, 18, 19, 20, 21, 22, 23, 24, 25, 26, 27, 28, 29, 30, 31, 32, 33, 34, 35, 36, 37, 38, 39, 40, 41, 42, 43, 44, 45, 46, 47, 
distro:
874, 874, 874, 874, 874, 845, 874, 874, 874, 874, 874, 845, 874, 874, 874, 874, 874, 845, 408, 437, 437, 437, 437, 437, 437, 437, 437, 437, 437, 437, 437, 437, 437, 437, 437, 408, 437, 437, 437, 437, 437, 437, 437, 437, 437, 437, 437, 408, 
gpgpu_n_tot_thrd_icount = 13976224
gpgpu_n_tot_w_icount = 436757
gpgpu_n_stall_shd_mem = 117530
gpgpu_n_mem_read_local = 0
gpgpu_n_mem_write_local = 0
gpgpu_n_mem_read_global = 4894
gpgpu_n_mem_write_global = 1860
gpgpu_n_mem_texture = 0
gpgpu_n_mem_const = 45
gpgpu_n_load_insn  = 1447992
gpgpu_n_store_insn = 28392
gpgpu_n_shmem_insn = 0
gpgpu_n_tex_insn = 0
gpgpu_n_const_mem_insn = 709800
gpgpu_n_param_mem_insn = 85176
gpgpu_n_shmem_bkconflict = 0
gpgpu_n_cache_bkconflict = 0
gpgpu_n_intrawarp_mshr_merge = 0
gpgpu_n_cmem_portconflict = 5136
gpgpu_stall_shd_mem[c_mem][bk_conf] = 5136
gpgpu_stall_shd_mem[c_mem][mshr_rc] = 0
gpgpu_stall_shd_mem[c_mem][icnt_rc] = 0
gpgpu_stall_shd_mem[c_mem][data_port_stall] = 0
gpgpu_stall_shd_mem[t_mem][mshr_rc] = 0
gpgpu_stall_shd_mem[t_mem][icnt_rc] = 0
gpgpu_stall_shd_mem[t_mem][data_port_stall] = 0
gpgpu_stall_shd_mem[s_mem][bk_conf] = 0
gpgpu_stall_shd_mem[gl_mem][bk_conf] = 0
gpgpu_stall_shd_mem[gl_mem][coal_stall] = 112394
gpgpu_stall_shd_mem[gl_mem][data_port_stall] = 0
gpgpu_stall_shd_mem[g_mem_ld][mshr_rc] = 0
gpgpu_stall_shd_mem[g_mem_ld][icnt_rc] = 0
gpgpu_stall_shd_mem[g_mem_ld][wb_icnt_rc] = 0
gpgpu_stall_shd_mem[g_mem_ld][wb_rsrv_fail] = 0
gpgpu_stall_shd_mem[g_mem_st][mshr_rc] = 0
gpgpu_stall_shd_mem[g_mem_st][icnt_rc] = 0
gpgpu_stall_shd_mem[g_mem_st][wb_icnt_rc] = 0
gpgpu_stall_shd_mem[g_mem_st][wb_rsrv_fail] = 0
gpgpu_stall_shd_mem[l_mem_ld][mshr_rc] = 0
gpgpu_stall_shd_mem[l_mem_ld][icnt_rc] = 0
gpgpu_stall_shd_mem[l_mem_ld][wb_icnt_rc] = 0
gpgpu_stall_shd_mem[l_mem_ld][wb_rsrv_fail] = 0
gpgpu_stall_shd_mem[l_mem_st][mshr_rc] = 0
gpgpu_stall_shd_mem[l_mem_st][icnt_rc] = 0
gpgpu_stall_shd_mem[l_mem_ld][wb_icnt_rc] = 0
gpgpu_stall_shd_mem[l_mem_ld][wb_rsrv_fail] = 0
gpu_reg_bank_conflict_stalls = 0
Warp Occupancy Distribution:
Stall:87544	W0_Idle:22980	W0_Scoreboard:42603	W1:1617	W2:1706	W3:1602	W4:1573	W5:1910	W6:2148	W7:2029	W8:1839	W9:69677	W10:1230	W11:880	W12:982	W13:1064	W14:1298	W15:978	W16:903	W17:828	W18:938	W19:914	W20:652	W21:625	W22:705	W23:1064	W24:1036	W25:1062	W26:1332	W27:1100	W28:1093	W29:981	W30:664	W31:754	W32:331573
traffic_breakdown_coretomem[CONST_ACC_R] = 360 {8:45,}
traffic_breakdown_coretomem[GLOBAL_ACC_R] = 39152 {8:4894,}
traffic_breakdown_coretomem[GLOBAL_ACC_W] = 172800 {40:499,72:504,136:857,}
traffic_breakdown_coretomem[INST_ACC_R] = 840 {8:105,}
traffic_breakdown_memtocore[CONST_ACC_R] = 3240 {72:45,}
traffic_breakdown_memtocore[GLOBAL_ACC_R] = 665584 {136:4894,}
traffic_breakdown_memtocore[GLOBAL_ACC_W] = 14880 {8:1860,}
traffic_breakdown_memtocore[INST_ACC_R] = 14280 {136:105,}
maxmrqlatency = 192 
maxdqlatency = 0 
maxmflatency = 670 
averagemflatency = 263 
max_icnt2mem_latency = 404 
max_icnt2sh_latency = 20886 
mrq_lat_table:1209 	288 	155 	248 	323 	221 	174 	46 	0 	0 	0 	0 	0 	0 	0 	0 	0 	0 	0 	0 	0 	0 	0 	0 	0 	0 	0 	0 	0 	0 	0 	0 	
dq_lat_table:0 	0 	0 	0 	0 	0 	0 	0 	0 	0 	0 	0 	0 	0 	0 	0 	0 	0 	0 	0 	0 	0 	0 	0 	0 	0 	0 	0 	0 	0 	0 	0 	
mf_lat_table:0 	0 	0 	0 	0 	0 	0 	3568 	2931 	300 	0 	0 	0 	0 	0 	0 	0 	0 	0 	0 	0 	0 	0 	0 	0 	0 	0 	0 	0 	0 	0 	0 	
icnt2mem_lat_table:0 	0 	0 	4460 	1167 	529 	397 	326 	25 	0 	0 	0 	0 	0 	0 	0 	0 	0 	0 	0 	0 	0 	0 	0 	
icnt2sh_lat_table:0 	0 	0 	1277 	2614 	1021 	27 	0 	0 	0 	0 	0 	0 	1330 	530 	0 	0 	0 	0 	0 	0 	0 	0 	0 	
mf_lat_pw_table:0 	0 	0 	0 	0 	0 	0 	34 	6 	0 	0 	0 	0 	0 	0 	0 	0 	0 	0 	0 	0 	0 	0 	0 	0 	0 	0 	0 	0 	0 	0 	0 	
maximum concurrent accesses to same row:
dram[0]:         1         0         0         0         0         0         0         0         0         0         0         0         0         0         0         0 
dram[1]:         1         0         0         0         0         0         0         0         0         0         0         0         0         0         0         0 
dram[2]:         0         0         0         0         0         0         0         0         0         0         0         0         0         0         0         0 
dram[3]:         0         0         0         0         0         0         0         0         0         0         0         0         0         0         0         0 
dram[4]:         0         0         0         0         0         0         0         0         0         0         0         0         0         0         0         0 
dram[5]:         0         0         0         0         0         0         0         0         0         0         0         0         0         0         0         0 
maximum service time to same row:
dram[0]:       350         0         0         0      1532      1563      2006      2040      2784       841     11874     11632     13600     13566         0         0 
dram[1]:      2062         0         0         0      1551      1569      2057      1885      2910     11788     11960     11772     13616     13747         0         0 
dram[2]:      9678         0         0         0      1549      1543      2012      1988      2291     11638     11957     11571     13382     13806         0         0 
dram[3]:     10863         0         0         0      1546      1537      1793      1990      2241     11519     11924     11810     13366     13954         0         0 
dram[4]:         0         0         0         0      1541      1538      2063      1960       847     11537     11566     11807     13363     13441         0         0 
dram[5]:         0         0         0         0      1569      1534      2012      2056       851     11644     11560     11877     13571     13435         0         0 
average row accesses per activate:
dram[0]:  1.000000      -nan      -nan      -nan 10.000000 10.000000 32.000000 32.000000 49.000000 50.000000 68.000000 67.000000 63.000000 62.000000      -nan      -nan 
dram[1]:  3.000000      -nan      -nan      -nan 10.000000 10.000000 32.000000 32.000000 54.000000 55.000000 70.000000 65.000000 63.000000 56.000000      -nan      -nan 
dram[2]:  2.000000      -nan      -nan      -nan 10.000000 12.000000 32.000000 32.000000 50.000000 52.000000 68.000000 66.000000 61.000000 59.000000      -nan      -nan 
dram[3]:  1.000000      -nan      -nan      -nan 10.000000 12.000000 32.000000 32.000000 51.000000 54.000000 66.000000 65.000000 61.000000 56.000000      -nan      -nan 
dram[4]:      -nan      -nan      -nan      -nan 10.000000 12.000000 32.000000 32.000000 50.000000 55.000000 68.000000 68.000000 61.000000 58.000000      -nan      -nan 
dram[5]:      -nan      -nan      -nan      -nan 10.000000 12.000000 32.000000 32.000000 47.000000 53.000000 68.000000 65.000000 62.000000 57.000000      -nan      -nan 
average row locality = 2664/66 = 40.363636
number of total memory accesses made:
dram[0]:         0         0         0         0         0         0         0         0         0         0         0         0         0         0         0         0 
dram[1]:         0         0         0         0         0         0         0         0         0         0         0         0         0         0         0         0 
dram[2]:         0         0         0         0         0         0         0         0         0         0         0         0         0         0         0         0 
dram[3]:         0         0         0         0         0         0         0         0         0         0         0         0         0         0         0         0 
dram[4]:         0         0         0         0         0         0         0         0         0         0         0         0         0         0         0         0 
dram[5]:         0         0         0         0         0         0         0         0         0         0         0         0         0         0         0         0 
total accesses: 0
min_bank_accesses = 0!
min_chip_accesses = 0!
number of total read accesses:
dram[0]:         3         0         0         0        10        10        32        32        32        31        32        32        30        30         0         0 
dram[1]:         3         0         0         0        10        10        32        32        32        32        32        32        30        28         0         0 
dram[2]:         2         0         0         0        10        12        32        32        32        32        32        32        30        28         0         0 
dram[3]:         1         0         0         0        10        12        32        32        32        32        32        32        30        28         0         0 
dram[4]:         0         0         0         0        10        12        32        32        32        32        32        32        30        28         0         0 
dram[5]:         0         0         0         0        10        12        32        32        32        32        32        32        30        28         0         0 
total reads: 1638
min_bank_accesses = 0!
chip skew: 274/272 = 1.01
number of total write accesses:
dram[0]:         0         0         0         0         0         0         0         0        17        19        36        35        33        32         0         0 
dram[1]:         0         0         0         0         0         0         0         0        22        23        38        33        33        28         0         0 
dram[2]:         0         0         0         0         0         0         0         0        18        20        36        34        31        31         0         0 
dram[3]:         0         0         0         0         0         0         0         0        19        22        34        33        31        28         0         0 
dram[4]:         0         0         0         0         0         0         0         0        18        23        36        36        31        30         0         0 
dram[5]:         0         0         0         0         0         0         0         0        15        21        36        33        32        29         0         0 
total reads: 1026
min_bank_accesses = 0!
chip skew: 177/166 = 1.07
average mf latency per bank:
dram[0]:       1300    none      none      none        2558      2511      1903      2300       689       582       229       225       208       205    none      none  
dram[1]:       1980    none      none      none        3017      1972      2621      1841       548       485       228       226       206       207    none      none  
dram[2]:          0    none      none      none        2528      2410      2392      1753       606       507       232       217       208       207    none      none  
dram[3]:          0    none      none      none        2176      2356      1714      1644       589       528       244       217       217       205    none      none  
dram[4]:     none      none      none      none        2863      2098      2196      1875       705       500       229       210       216       203    none      none  
dram[5]:     none      none      none      none        2186      2418      1904      2388       639       509       220       230       212       200    none      none  
maximum mf latency per bank:
dram[0]:        278         0         0         0       549       611       524       584       520       421       403       352       346       307         0         0
dram[1]:        273         0         0         0       640       463       627       478       640       488       370       385       298       282         0         0
dram[2]:          0         0         0         0       539       552       608       554       619       518       369       346       317       309         0         0
dram[3]:          0         0         0         0       546       593       579       508       512       477       500       354       402       314         0         0
dram[4]:          0         0         0         0       632       573       670       431       668       457       399       360       340       312         0         0
dram[5]:          0         0         0         0       579       616       508       552       384       368       372       348       326       324         0         0

Number of Memory Banks Accessed per Memory Operation per Warp (from 0):
0	0	0	0	0	0	0	0	0	0	0	0	0	0	0	0	0	0	0	0	0	0	0	0	0	0	0	0	0	0	0	0	0	0	0	0	0	0	0	0	0	0	0	0	0	0	0	0	0	0	0	0	0	0	0	0	0	0	0	0	0	0	0	0	0	0	0	0	0	0	0	0	0	0	0	0	0	0	0	0	0	0	0	0	0	0	0	0	0	0	0	0	0	0	0	0	
Average # of Memory Banks Accessed per Memory Operation per Warp=-nan

position of mrq chosen
0	0	0	0	0	0	0	0	0	0	0	0	0	0	0	0	

average position of mrq chosen = -nan
Memory Partition 0: 
Cache L2_bank_000:
MSHR contents

Cache L2_bank_001:
MSHR contents

In Dram Latency Queue (total = 0): 
DRAM[0]: 16 bks, busW=4 BL=8 CL=12, tRRD=2 tCCD=6, tRCD=12 tRAS=28 tRP=12 tRC=40
n_cmd=27570 n_nop=26750 n_act=13 n_pre=2 n_req=446 n_rd=548 n_write=257 bw_util=0.0584
n_activity=4935 dram_eff=0.3262
bk0: 6a 27493i bk1: 0a 27565i bk2: 0a 27570i bk3: 0a 27571i bk4: 20a 27510i bk5: 20a 27479i bk6: 64a 27386i bk7: 64a 27349i bk8: 64a 26925i bk9: 62a 26878i bk10: 64a 26388i bk11: 64a 26451i bk12: 60a 26828i bk13: 60a 26846i bk14: 0a 27566i bk15: 0a 27566i 
dram_util_bins: 0 0 0 0 0 0 0 0 0 0
dram_eff_bins: 0 0 0 0 0 0 0 0 0 0
mrqq: max=16 avg=0.438665
Memory Partition 1: 
Cache L2_bank_002:
MSHR contents

Cache L2_bank_003:
MSHR contents

In Dram Latency Queue (total = 0): 
DRAM[1]: 16 bks, busW=4 BL=8 CL=12, tRRD=2 tCCD=6, tRCD=12 tRAS=28 tRP=12 tRC=40
n_cmd=27570 n_nop=26746 n_act=12 n_pre=1 n_req=450 n_rd=546 n_write=265 bw_util=0.05883
n_activity=4935 dram_eff=0.3287
[...]
traffic_breakdown_coretomem[CONST_ACC_R] = 600 {8:75,}
traffic_breakdown_coretomem[GLOBAL_ACC_R] = 1240616 {8:155077,}
traffic_breakdown_coretomem[GLOBAL_ACC_W] = 517200 {40:4279,72:1204,136:1907,}
traffic_breakdown_coretomem[INST_ACC_R] = 3000 {8:375,}
traffic_breakdown_memtocore[CONST_ACC_R] = 5400 {72:75,}
traffic_breakdown_memtocore[GLOBAL_ACC_R] = 21090472 {136:155077,}
traffic_breakdown_memtocore[GLOBAL_ACC_W] = 59120 {8:7390,}
traffic_breakdown_memtocore[INST_ACC_R] = 51000 {136:375,}
maxmrqlatency = 192 
maxdqlatency = 0 
maxmflatency = 670 
averagemflatency = 154 
max_icnt2mem_latency = 404 
max_icnt2sh_latency = 2115514 
mrq_lat_table:7031 	704 	250 	462 	573 	302 	253 	87 	0 	0 	0 	0 	0 	0 	0 	0 	0 	0 	0 	0 	0 	0 	0 	0 	0 	0 	0 	0 	0 	0 	0 	0 	
dq_lat_table:0 	0 	0 	0 	0 	0 	0 	0 	0 	0 	0 	0 	0 	0 	0 	0 	0 	0 	0 	0 	0 	0 	0 	0 	0 	0 	0 	0 	0 	0 	0 	0 	
mf_lat_table:0 	0 	0 	0 	0 	0 	0 	154124 	8118 	300 	0 	0 	0 	0 	0 	0 	0 	0 	0 	0 	0 	0 	0 	0 	0 	0 	0 	0 	0 	0 	0 	0 	
icnt2mem_lat_table:0 	0 	0 	159526 	1845 	766 	411 	344 	25 	0 	0 	0 	0 	0 	0 	0 	0 	0 	0 	0 	0 	0 	0 	0 	
icnt2sh_lat_table:0 	0 	0 	141394 	11858 	1867 	33 	0 	0 	0 	0 	0 	0 	1330 	740 	849 	1391 	120 	360 	820 	1500 	280 	0 	0 	
mf_lat_pw_table:0 	0 	0 	0 	0 	0 	0 	4216 	15 	0 	0 	0 	0 	0 	0 	0 	0 	0 	0 	0 	0 	0 	0 	0 	0 	0 	0 	0 	0 	0 	0 	0 	
maximum concurrent accesses to same row:
dram[0]:        71        74        65        68        32        29        32        32        49        50        68        67        65        64        58        52 
dram[1]:        70        68        68        67        29        26        32        32        54        55        70        65        65        60        57        56 
dram[2]:        68        71        67        68        33        25        32        32        50        52        68        66        63        63        53        54 
dram[3]:        70        69        67        68        28        26        32        32        51        54        66        65        63        60        53        57 
dram[4]:        66        71        68        68        27        28        32        32        50        55        68        68        63        62        57        58 
dram[5]:        71        67        70        69        26        28        32        32        47        53        68        65        64        61        56        59 
maximum service time to same row:
dram[0]:     16657     11300     51082     51324     80565     80465      4765      4847    509557    661104     11874     11632     13600     13566       282       288 
dram[1]:     19364    249247     50929     51321     80990     80688      4909      4932    501015   1584239     11960     11772     13616    319544       288       287 
dram[2]:     10168     83546     50925     52129     81050     81051      5046      4903    532683   1025133     11957     11571     13382    323990      1440       374 
dram[3]:     10863    243468     50893     52059     81039     80451      5141      6650   1582699   1051250     11924     11810     13366    327428       285       282 
dram[4]:     18640     21782     51591     52815     81135     80569      4817      6541   1589588    577940     11566     11807     13363     13441       285       285 
dram[5]:     11216     23162     52154     52088     79982     80567      4840      5366    546424    837781     11560     11877     13571     13435      1119       307 
average row accesses per activate:
dram[0]: 17.833334 36.000000 48.500000 50.000000  3.407408  3.033333  2.526316  2.666667  3.095238  4.242424 50.000000 49.500000 32.666668 48.000000 45.000000 42.000000 
dram[1]: 26.500000 10.600000 50.000000 49.500000  3.296296  2.806452  2.526316  2.742857  4.129032  4.030303 51.000000 48.500000 48.500000 31.333334 44.500000 44.000000 
dram[2]: 34.000000 27.000000 49.500000 50.000000  3.538461  2.870968  2.594594  2.666667  3.527778  4.133333 50.000000 49.000000 47.500000 32.333332 42.500000 43.000000 
dram[3]: 34.666668 13.375000 49.500000 50.000000  3.259259  3.000000  2.461539  2.909091  4.483871  4.031250 49.000000 48.500000 47.500000 31.333334 42.500000 44.500000 
dram[4]: 33.333332 35.000000 50.000000 50.000000  2.838710  3.033333  2.594594  2.823529  3.864865  3.666667 50.000000 50.000000 47.500000 32.000000 44.500000 45.000000 
dram[5]: 35.000000 33.666668 51.000000 50.500000  3.000000  3.250000  2.594594  2.909091  3.116279  3.714286 50.000000 48.500000 48.000000 31.666666 44.000000 45.500000 
average row locality = 9662/1354 = 7.135894
number of total memory accesses made:
dram[0]:         0         0         0         0         0         0         0         0         0         0         0         0         0         0         0         0 
dram[1]:         0         0         0         0         0         0         0         0         0         0         0         0         0         0         0         0 
dram[2]:         0         0         0         0         0         0         0         0         0         0         0         0         0         0         0         0 
dram[3]:         0         0         0         0         0         0         0         0         0         0         0         0         0         0         0         0 
dram[4]:         0         0         0         0         0         0         0         0         0         0         0         0         0         0         0         0 
dram[5]:         0         0         0         0         0         0         0         0         0         0         0         0         0         0         0         0 
total accesses: 0
min_bank_accesses = 0!
min_chip_accesses = 0!
number of total read accesses:
dram[0]:        68        66        64        64        74        74        96        96        94        93        64        64        64        64        64        64 
dram[1]:        68        68        64        64        74        74        96        96        94        93        64        64        64        64        64        64 
dram[2]:        66        68        64        64        74        76        96        96        94        92        64        64        64        64        64        64 
dram[3]:        66        68        64        64        74        76        96        96        94        92        64        64        64        64        64        64 
dram[4]:        66        66        64        64        74        76        96        96        94        92        64        64        64        64        64        64 
dram[5]:        66        66        64        64        74        76        96        96        94        92        64        64        64        64        64        64 
total reads: 7040
bank skew: 96/64 = 1.50
chip skew: 1175/1172 = 1.00
number of total write accesses:
dram[0]:        39        42        33        36        18        17         0         0        36        47        36        35        34        32        26        20 
dram[1]:        38        38        36        35        15        13         0         0        34        40        38        33        33        30        25        24 
dram[2]:        36        40        35        36        18        13         0         0        33        32        36        34        31        33        21        22 
dram[3]:        38        39        35        36        14        14         0         0        45        37        34        33        31        30        21        25 
dram[4]:        34        39        36        36        14        15         0         0        49        40        36        36        31        32        25        26 
dram[5]:        39        35        38        37        13        15         0         0        40        38        36        33        32        31        24        27 
total reads: 2622
min_bank_accesses = 0!
chip skew: 451/420 = 1.07
average mf latency per bank:
dram[0]:       2217      2186      2237      2173      2982      3088      3401      3585      2568      2393      2160      2223      2238      2247      2803      2952
dram[1]:       2276      2182      2217      2236      3164      3176      3691      3401      2526      2528      2152      2217      2263      2402      2769      2883
dram[2]:       2315      2169      2252      2211      2973      3109      3567      3408      2564      2611      2195      2269      2340      2283      2874      2873
dram[3]:       2260      2188      2188      2166      3056      3106      3389      3417      2472      2533      2237      2257      2292      2369      3000      2750
dram[4]:       2311      2207      2211      2242      3181      3073      3505      3411      2423      2466      2191      2133      2352      2311      2770      2837
dram[5]:       2242      2327      2163      2181      3149      3077      3449      3617      2520      2430      2153      2250      2291      2344      2832      2717
maximum mf latency per bank:
dram[0]:        341       362       278       278       549       611       524       584       520       421       403       352       346       307       466       389
dram[1]:        286       470       333       482       640       486       627       500       640       502       380       385       353       460       467       470
dram[2]:        328       278       319       332       539       552       608       554       619       518       369       346       317       325       425       404
dram[3]:        348       350       295       285       546       593       579       508       512       477       500       354       402       314       369       426
dram[4]:        283       277       368       321       632       573       670       431       668       457       399       360       346       312       361       459
dram[5]:        354       317       315       311       579       616       508       552       384       415       372       348       350       324       403       473

Number of Memory Banks Accessed per Memory Operation per Warp (from 0):
0	0	0	0	0	0	0	0	0	0	0	0	0	0	0	0	0	0	0	0	0	0	0	0	0	0	0	0	0	0	0	0	0	0	0	0	0	0	0	0	0	0	0	0	0	0	0	0	0	0	0	0	0	0	0	0	0	0	0	0	0	0	0	0	0	0	0	0	0	0	0	0	0	0	0	0	0	0	0	0	0	0	0	0	0	0	0	0	0	0	0	0	0	0	0	0	
Average # of Memory Banks Accessed per Memory Operation per Warp=-nan

position of mrq chosen
0	0	0	0	0	0	0	0	0	0	0	0	0	0	0	0	

average position of mrq chosen = -nan
Memory Partition 0: 
Cache L2_bank_000:
MSHR contents

Cache L2_bank_001:
MSHR contents

In Dram Latency Queue (total = 0): 
DRAM[0]: 16 bks, busW=4 BL=8 CL=12, tRRD=2 tCCD=6, tRCD=12 tRAS=28 tRP=12 tRC=40
n_cmd=2792477 n_nop=2789034 n_act=232 n_pre=216 n_req=1624 n_rd=2346 n_write=649 bw_util=0.002145
n_activity=27709 dram_eff=0.2162
bk0: 136a 2791632i bk1: 132a 2791688i bk2: 128a 2791814i bk3: 128a 2791827i bk4: 148a 2791388i bk5: 148a 2791238i bk6: 192a 2791103i bk7: 192a 2791094i bk8: 188a 2790359i bk9: 186a 2790491i bk10: 128a 2791017i bk11: 128a 2791111i bk12: 128a 2791452i bk13: 128a 2791556i bk14: 128a 2791733i bk15: 128a 2791800i 
dram_util_bins: 0 0 0 0 0 0 0 0 0 0
dram_eff_bins: 0 0 0 0 0 0 0 0 0 0
mrqq: max=16 avg=0.00630336
Memory Partition 1: 
Cache L2_bank_002:
MSHR contents

Cache L2_bank_003:
MSHR contents

In Dram Latency Queue (total = 0): 
DRAM[1]: 16 bks, busW=4 BL=8 CL=12, tRRD=2 tCCD=6, tRCD=12 tRAS=28 tRP=12 tRC=40
n_cmd=2792477 n_nop=2789055 n_act=227 n_pre=211 n_req=1607 n_rd=2350 n_write=634 bw_util=0.002137
n_activity=27151 dram_eff=0.2198
bk0: 136a 2791658i bk1: 136a 2791507i bk2: 128a 2791787i bk3: 128a 2791749i bk4: 148a 2791391i bk5: 148a 2791221i bk6: 192a 2791121i bk7: 192a 2791049i bk8: 188a 2790638i bk9: 186a 2790358i bk10: 128a 2790944i bk11: 128a 2791174i bk12: 128a 2791554i bk13: 128a 2791559i bk14: 128a 2791732i bk15: 128a 2791789i 
dram_util_bins: 0 0 0 0 0 0 0 0 0 0
dram_eff_bins: 0 0 0 0 0 0 0 0 0 0
mrqq: max=16 avg=0.00636997
Memory Partition 2: 
Cache L2_bank_004:
MSHR contents

Cache L2_bank_005:
MSHR contents

In Dram Latency Queue (total = 0): 
DRAM[2]: 16 bks, busW=4 BL=8 CL=12, tRRD=2 tCCD=6, tRCD=12 tRAS=28 tRP=12 tRC=40
n_cmd=2792477 n_nop=2789078 n_act=220 n_pre=204 n_req=1594 n_rd=2348 n_write=627 bw_util=0.002131
n_activity=26853 dram_eff=0.2216
bk0: 132a 2791729i bk1: 136a 2791693i bk2: 128a 2791782i bk3: 128a 2791792i bk4: 148a 2791388i bk5: 152a 2791247i bk6: 192a 2791121i bk7: 192a 2791074i bk8: 188a 2790501i bk9: 184a 2790501i bk10: 128a 2790987i bk11: 128a 2791007i bk12: 128a 2791599i bk13: 128a 2791504i bk14: 128a 2791789i bk15: 128a 2791817i 
dram_util_bins: 0 0 0 0 0 0 0 0 0 0
dram_eff_bins: 0 0 0 0 0 0 0 0 0 0
mrqq: max=16 avg=0.00480971
Memory Partition 3: 
Cache L2_bank_006:
MSHR contents

Cache L2_bank_007:
MSHR contents

In Dram Latency Queue (total = 0): 
DRAM[3]: 16 bks, busW=4 BL=8 CL=12, tRRD=2 tCCD=6, tRCD=12 tRAS=28 tRP=12 tRC=40
n_cmd=2792477 n_nop=2789086 n_act=220 n_pre=204 n_req=1606 n_rd=2348 n_write=619 bw_util=0.002125
n_activity=27114 dram_eff=0.2189
bk0: 132a 2791716i bk1: 136a 2791600i bk2: 128a 2791761i bk3: 128a 2791777i bk4: 148a 2791379i bk5: 152a 2791274i bk6: 192a 2791078i bk7: 192a 2791168i bk8: 188a 2790640i bk9: 184a 2790496i bk10: 128a 2790920i bk11: 128a 2791100i bk12: 128a 2791538i bk13: 128a 2791532i bk14: 128a 2791833i bk15: 128a 2791713i 
dram_util_bins: 0 0 0 0 0 0 0 0 0 0
dram_eff_bins: 0 0 0 0 0 0 0 0 0 0
mrqq: max=16 avg=0.00560434
Memory Partition 4: 
Cache L2_bank_008:
MSHR contents

Cache L2_bank_009:
MSHR contents

In Dram Latency Queue (total = 0): 
DRAM[4]: 16 bks, busW=4 BL=8 CL=12, tRRD=2 tCCD=6, tRCD=12 tRAS=28 tRP=12 tRC=40
n_cmd=2792477 n_nop=2789044 n_act=228 n_pre=212 n_req=1621 n_rd=2344 n_write=649 bw_util=0.002144
n_activity=27286 dram_eff=0.2194
bk0: 132a 2791713i bk1: 132a 2791748i bk2: 128a 2791778i bk3: 128a 2791811i bk4: 148a 2791303i bk5: 152a 2791270i bk6: 192a 2791162i bk7: 192a 2791200i bk8: 188a 2790396i bk9: 184a 2790353i bk10: 128a 2791038i bk11: 128a 2791089i bk12: 128a 2791573i bk13: 128a 2791562i bk14: 128a 2791800i bk15: 128a 2791714i 
dram_util_bins: 0 0 0 0 0 0 0 0 0 0
dram_eff_bins: 0 0 0 0 0 0 0 0 0 0
mrqq: max=16 avg=0.00428473
Memory Partition 5: 
Cache L2_bank_010:
MSHR contents

Cache L2_bank_011:
MSHR contents

In Dram Latency Queue (total = 0): 
DRAM[5]: 16 bks, busW=4 BL=8 CL=12, tRRD=2 tCCD=6, tRCD=12 tRAS=28 tRP=12 tRC=40
n_cmd=2792477 n_nop=2789047 n_act=228 n_pre=212 n_req=1610 n_rd=2344 n_write=646 bw_util=0.002141
n_activity=27227 dram_eff=0.2196
bk0: 132a 2791663i bk1: 132a 2791732i bk2: 128a 2791769i bk3: 128a 2791811i bk4: 148a 2791392i bk5: 152a 2791343i bk6: 192a 2791149i bk7: 192a 2791170i bk8: 188a 2790392i bk9: 184a 2790364i bk10: 128a 2791127i bk11: 128a 2791156i bk12: 128a 2791510i bk13: 128a 2791639i bk14: 128a 2791804i bk15: 128a 2791758i 
dram_util_bins: 0 0 0 0 0 0 0 0 0 0
dram_eff_bins: 0 0 0 0 0 0 0 0 0 0
mrqq: max=16 avg=0.00459771

========= L2 cache stats =========
L2_cache_bank[0]: Access = 13540, Miss = 588, Miss_rate = 0.043, Pending_hits = 160, Reservation_fails = 879
L2_cache_bank[1]: Access = 13625, Miss = 585, Miss_rate = 0.043, Pending_hits = 169, Reservation_fails = 1117
L2_cache_bank[2]: Access = 13551, Miss = 588, Miss_rate = 0.043, Pending_hits = 164, Reservation_fails = 1132
L2_cache_bank[3]: Access = 13642, Miss = 587, Miss_rate = 0.043, Pending_hits = 155, Reservation_fails = 792
L2_cache_bank[4]: Access = 13499, Miss = 586, Miss_rate = 0.043, Pending_hits = 146, Reservation_fails = 585
L2_cache_bank[5]: Access = 13561, Miss = 588, Miss_rate = 0.043, Pending_hits = 155, Reservation_fails = 879
L2_cache_bank[6]: Access = 13586, Miss = 586, Miss_rate = 0.043, Pending_hits = 158, Reservation_fails = 685
L2_cache_bank[7]: Access = 13566, Miss = 588, Miss_rate = 0.043, Pending_hits = 162, Reservation_fails = 516
L2_cache_bank[8]: Access = 13587, Miss = 586, Miss_rate = 0.043, Pending_hits = 171, Reservation_fails = 898
L2_cache_bank[9]: Access = 13601, Miss = 586, Miss_rate = 0.043, Pending_hits = 151, Reservation_fails = 723
L2_cache_bank[10]: Access = 13607, Miss = 586, Miss_rate = 0.043, Pending_hits = 172, Reservation_fails = 841
L2_cache_bank[11]: Access = 13552, Miss = 586, Miss_rate = 0.043, Pending_hits = 137, Reservation_fails = 702
L2_total_cache_accesses = 162917
L2_total_cache_misses = 7040
L2_total_cache_miss_rate = 0.0432
L2_total_cache_pending_hits = 1900
L2_total_cache_reservation_fails = 9749
L2_total_cache_breakdown:
	L2_cache_stats_breakdown[GLOBAL_ACC_R][HIT] = 148774
	L2_cache_stats_breakdown[GLOBAL_ACC_R][HIT_RESERVED] = 1370
	L2_cache_stats_breakdown[GLOBAL_ACC_R][MISS] = 4933
	L2_cache_stats_breakdown[GLOBAL_ACC_R][RESERVATION_FAIL] = 7802
	L2_cache_stats_breakdown[CONST_ACC_R][HIT] = 63
	L2_cache_stats_breakdown[CONST_ACC_R][HIT_RESERVED] = 9
	L2_cache_stats_breakdown[CONST_ACC_R][MISS] = 3
	L2_cache_stats_breakdown[CONST_ACC_R][RESERVATION_FAIL] = 315
	L2_cache_stats_breakdown[GLOBAL_ACC_W][HIT] = 4840
	L2_cache_stats_breakdown[GLOBAL_ACC_W][HIT_RESERVED] = 471
	L2_cache_stats_breakdown[GLOBAL_ACC_W][MISS] = 2079
	L2_cache_stats_breakdown[GLOBAL_ACC_W][RESERVATION_FAIL] = 538
	L2_cache_stats_breakdown[INST_ACC_R][HIT] = 300
	L2_cache_stats_breakdown[INST_ACC_R][HIT_RESERVED] = 50
	L2_cache_stats_breakdown[INST_ACC_R][MISS] = 25
	L2_cache_stats_breakdown[INST_ACC_R][RESERVATION_FAIL] = 1094
L2_cache_data_port_util = 0.024
L2_cache_fill_port_util = 0.001

icnt_total_pkts_mem_to_simt=784875
icnt_total_pkts_simt_to_mem=177232
LD_mem_lat_dist  0 0 0 0 0 0 0 0 0 0 0 0 0 0 0 0 0 0 0 0 0 0 0 0 0 0 0
ST_mem_lat_dist  0 0 0 0 0 0 0 0 0 0 0 0 0 0 0 0 0 0 0 0 0 0 0 0 0 0 0
----------------------------Interconnect-DETAILS--------------------------------
Class 0:
Packet latency average = 10.8282
	minimum = 6
	maximum = 146
Network latency average = 9.86497
	minimum = 6
	maximum = 129
Slowest packet = 324217
Flit latency average = 7.96386
	minimum = 6
	maximum = 128
Slowest flit = 957975
Fragmentation average = 0
	minimum = 0
	maximum = 0
Injected packet rate average = 0.00496482
	minimum = 0.00362903 (at node 8)
	maximum = 0.00761649 (at node 16)
Accepted packet rate average = 0.00496482
	minimum = 0.00362903 (at node 8)
	maximum = 0.00761649 (at node 16)
Injected flit rate average = 0.0135006
	minimum = 0.00434588 (at node 8)
	maximum = 0.0266129 (at node 16)
Accepted flit rate average= 0.0135006
	minimum = 0.00439068 (at node 19)
	maximum = 0.0204301 (at node 1)
Injected packet length average = 2.71925
Accepted packet length average = 2.71925
Total in-flight flits = 0 (0 measured)
====== Overall Traffic Statistics ======
====== Traffic class 0 ======
Packet latency average = 11.6364 (4 samples)
	minimum = 6 (4 samples)
	maximum = 111.5 (4 samples)
Network latency average = 10.5576 (4 samples)
	minimum = 6 (4 samples)
	maximum = 101.25 (4 samples)
Flit latency average = 8.71545 (4 samples)
	minimum = 6 (4 samples)
	maximum = 100 (4 samples)
Fragmentation average = 0 (4 samples)
	minimum = 0 (4 samples)
	maximum = 0 (4 samples)
Injected packet rate average = 0.0128467 (4 samples)
	minimum = 0.0104416 (4 samples)
	maximum = 0.0158237 (4 samples)
Accepted packet rate average = 0.0128467 (4 samples)
	minimum = 0.0104416 (4 samples)
	maximum = 0.0158237 (4 samples)
Injected flit rate average = 0.036648 (4 samples)
	minimum = 0.0156799 (4 samples)
	maximum = 0.065707 (4 samples)
Accepted flit rate average = 0.036648 (4 samples)
	minimum = 0.0199497 (4 samples)
	maximum = 0.0568297 (4 samples)
Injected packet size average = 2.85272 (4 samples)
Accepted packet size average = 2.85272 (4 samples)
Hops average = 1 (4 samples)
----------------------------END-of-Interconnect-DETAILS-------------------------


gpgpu_simulation_time = 0 days, 0 hrs, 27 min, 24 sec (1644 sec)
gpgpu_simulation_rate = 47658 (inst/sec)
gpgpu_simulation_rate = 1286 (cycle/sec)
7 2 1 0 4 1 4 9 6 9 0 6 9 0 1 5 9 7 3 4 9 6 6 5 4 0 7 4
