

        *** GPGPU-Sim Simulator Version 3.2.2  [build 0] ***


GPGPU-Sim PTX: simulation mode 0 (can change with PTX_SIM_MODE_FUNC environment variable:
               1=functional simulation only, 0=detailed performance simulator)
GPGPU-Sim: Configuration options:

-network_mode                           1 # Interconnection network mode
-inter_config_file   config_fermi_islip.icnt # Interconnection network config file
-gpgpu_ptx_use_cuobjdump                    1 # Use cuobjdump to extract ptx and sass from binaries
-gpgpu_experimental_lib_support                    0 # Try to extract code from cuda libraries [Broken because of unknown cudaGetExportTable]
-gpgpu_ptx_convert_to_ptxplus                    0 # Convert SASS (native ISA) to ptxplus and run ptxplus
-gpgpu_ptx_force_max_capability                   20 # Force maximum compute capability
-gpgpu_ptx_inst_debug_to_file                    0 # Dump executed instructions' debug information to file
-gpgpu_ptx_inst_debug_file       inst_debug.txt # Executed instructions' debug output file
-gpgpu_ptx_inst_debug_thread_uid                    1 # Thread UID for executed instructions' debug output
-gpgpu_simd_model                       1 # 1 = post-dominator
-gpgpu_shader_core_pipeline              1536:32 # shader core pipeline config, i.e., {<nthread>:<warpsize>}
-gpgpu_tex_cache:l1  4:128:24,L:R:m:N:L,F:128:4,128:2 # per-shader L1 texture cache  (READ-ONLY) config  {<nsets>:<bsize>:<assoc>,<rep>:<wr>:<alloc>:<wr_alloc>,<mshr>:<N>:<merge>,<mq>:<rf>}
-gpgpu_const_cache:l1 64:64:2,L:R:f:N:L,A:2:32,4 # per-shader L1 constant memory cache  (READ-ONLY) config  {<nsets>:<bsize>:<assoc>,<rep>:<wr>:<alloc>:<wr_alloc>,<mshr>:<N>:<merge>,<mq>} 
-gpgpu_cache:il1     4:128:4,L:R:f:N:L,A:2:32,4 # shader L1 instruction cache config  {<nsets>:<bsize>:<assoc>,<rep>:<wr>:<alloc>:<wr_alloc>,<mshr>:<N>:<merge>,<mq>} 
-gpgpu_cache:dl1     32:128:2,L:L:m:N:H,A:32:8,8 # per-shader L1 data cache config  {<nsets>:<bsize>:<assoc>,<rep>:<wr>:<alloc>:<wr_alloc>,<mshr>:<N>:<merge>,<mq> | none}
-gpgpu_cache:dl1PrefL1                 none # per-shader L1 data cache config  {<nsets>:<bsize>:<assoc>,<rep>:<wr>:<alloc>:<wr_alloc>,<mshr>:<N>:<merge>,<mq> | none}
-gpgpu_cache:dl1PreShared                 none # per-shader L1 data cache config  {<nsets>:<bsize>:<assoc>,<rep>:<wr>:<alloc>:<wr_alloc>,<mshr>:<N>:<merge>,<mq> | none}
-gmem_skip_L1D                          0 # global memory access skip L1D cache (implements -Xptxas -dlcm=cg, default=no skip)
-gpgpu_perfect_mem                      0 # enable perfect memory mode (no cache miss)
-n_regfile_gating_group                    4 # group of lanes that should be read/written together)
-gpgpu_clock_gated_reg_file                    0 # enable clock gated reg file for power calculations
-gpgpu_clock_gated_lanes                    0 # enable clock gated lanes for power calculations
-gpgpu_shader_registers                32768 # Number of registers per shader core. Limits number of concurrent CTAs. (default 8192)
-gpgpu_shader_cta                       8 # Maximum number of concurrent CTAs in shader (default 8)
-gpgpu_num_cta_barriers                   16 # Maximum number of named barriers per CTA (default 16)
-gpgpu_n_clusters                      15 # number of processing clusters
-gpgpu_n_cores_per_cluster                    1 # number of simd cores per cluster
-gpgpu_n_cluster_ejection_buffer_size                    8 # number of packets in ejection buffer
-gpgpu_n_ldst_response_buffer_size                    2 # number of response packets in ld/st unit ejection buffer
-gpgpu_shmem_size                   16384 # Size of shared memory per shader core (default 16kB)
-gpgpu_shmem_size                   49152 # Size of shared memory per shader core (default 16kB)
-gpgpu_shmem_size_PrefL1                16384 # Size of shared memory per shader core (default 16kB)
-gpgpu_shmem_size_PrefShared                16384 # Size of shared memory per shader core (default 16kB)
-gpgpu_shmem_num_banks                   32 # Number of banks in the shared memory in each shader core (default 16)
-gpgpu_shmem_limited_broadcast                    0 # Limit shared memory to do one broadcast per cycle (default on)
-gpgpu_shmem_warp_parts                    1 # Number of portions a warp is divided into for shared memory bank conflict check 
-gpgpu_warpdistro_shader                   -1 # Specify which shader core to collect the warp size distribution from
-gpgpu_warp_issue_shader                    0 # Specify which shader core to collect the warp issue distribution from
-gpgpu_local_mem_map                    1 # Mapping from local memory space address to simulated GPU physical address space (default = enabled)
-gpgpu_num_reg_banks                   16 # Number of register banks (default = 8)
-gpgpu_reg_bank_use_warp_id                    0 # Use warp ID in mapping registers to banks (default = off)
-gpgpu_operand_collector_num_units_sp                    6 # number of collector units (default = 4)
-gpgpu_operand_collector_num_units_sfu                    8 # number of collector units (default = 4)
-gpgpu_operand_collector_num_units_mem                    2 # number of collector units (default = 2)
-gpgpu_operand_collector_num_units_gen                    0 # number of collector units (default = 0)
-gpgpu_operand_collector_num_in_ports_sp                    2 # number of collector unit in ports (default = 1)
-gpgpu_operand_collector_num_in_ports_sfu                    1 # number of collector unit in ports (default = 1)
-gpgpu_operand_collector_num_in_ports_mem                    1 # number of collector unit in ports (default = 1)
-gpgpu_operand_collector_num_in_ports_gen                    0 # number of collector unit in ports (default = 0)
-gpgpu_operand_collector_num_out_ports_sp                    2 # number of collector unit in ports (default = 1)
-gpgpu_operand_collector_num_out_ports_sfu                    1 # number of collector unit in ports (default = 1)
-gpgpu_operand_collector_num_out_ports_mem                    1 # number of collector unit in ports (default = 1)
-gpgpu_operand_collector_num_out_ports_gen                    0 # number of collector unit in ports (default = 0)
-gpgpu_coalesce_arch                   13 # Coalescing arch (default = 13, anything else is off for now)
-gpgpu_num_sched_per_core                    2 # Number of warp schedulers per core
-gpgpu_max_insn_issue_per_warp                    1 # Max number of instructions that can be issued per warp in one cycle by scheduler
-gpgpu_simt_core_sim_order                    1 # Select the simulation order of cores in a cluster (0=Fix, 1=Round-Robin)
-gpgpu_pipeline_widths        2,1,1,2,1,1,2 # Pipeline widths ID_OC_SP,ID_OC_SFU,ID_OC_MEM,OC_EX_SP,OC_EX_SFU,OC_EX_MEM,EX_WB
-gpgpu_num_sp_units                     2 # Number of SP units (default=1)
-gpgpu_num_sfu_units                    1 # Number of SF units (default=1)
-gpgpu_num_mem_units                    1 # Number if ldst units (default=1) WARNING: not hooked up to anything
-gpgpu_scheduler                      gto # Scheduler configuration: < lrr | gto | two_level_active > If two_level_active:<num_active_warps>:<inner_prioritization>:<outer_prioritization>For complete list of prioritization values see shader.h enum scheduler_prioritization_typeDefault: gto
-gpgpu_dram_scheduler                    1 # 0 = fifo, 1 = FR-FCFS (defaul)
-gpgpu_dram_partition_queues              8:8:8:8 # i2$:$2d:d2$:$2i
-l2_ideal                               0 # Use a ideal L2 cache that always hit
-gpgpu_cache:dl2     64:128:8,L:B:m:W:L,A:32:4,4:0,32 # unified banked L2 data cache config  {<nsets>:<bsize>:<assoc>,<rep>:<wr>:<alloc>:<wr_alloc>,<mshr>:<N>:<merge>,<mq>}
-gpgpu_cache:dl2_texture_only                    0 # L2 cache used for texture only
-gpgpu_n_mem                            6 # number of memory modules (e.g. memory controllers) in gpu
-gpgpu_n_sub_partition_per_mchannel                    2 # number of memory subpartition in each memory module
-gpgpu_n_mem_per_ctrlr                    2 # number of memory chips per memory controller
-gpgpu_memlatency_stat                   14 # track and display latency statistics 0x2 enables MC, 0x4 enables queue logs
-gpgpu_frfcfs_dram_sched_queue_size                   16 # 0 = unlimited (default); # entries per chip
-gpgpu_dram_return_queue_size                  116 # 0 = unlimited (default); # entries per chip
-gpgpu_dram_buswidth                    4 # default = 4 bytes (8 bytes per cycle at DDR)
-gpgpu_dram_burst_length                    8 # Burst length of each DRAM request (default = 4 data bus cycle)
-dram_data_command_freq_ratio                    4 # Frequency ratio between DRAM data bus and command bus (default = 2 times, i.e. DDR)
-gpgpu_dram_timing_opt nbk=16:CCD=2:RRD=6:RCD=12:RAS=28:RP=12:RC=40: CL=12:WL=4:CDLR=5:WR=12:nbkgrp=4:CCDL=3:RTPL=2 # DRAM timing parameters = {nbk:tCCD:tRRD:tRCD:tRAS:tRP:tRC:CL:WL:tCDLR:tWR:nbkgrp:tCCDL:tRTPL}
-rop_latency                          120 # ROP queue latency (default 85)
-dram_latency                         100 # DRAM latency (default 30)
-gpgpu_mem_addr_mapping dramid@8;00000000.00000000.00000000.00000000.0000RRRR.RRRRRRRR.BBBCCCCB.CCSSSSSS # mapping memory address to dram model {dramid@<start bit>;<memory address map>}
-gpgpu_mem_addr_test                    0 # run sweep test to check address mapping for aliased address
-gpgpu_mem_address_mask                    1 # 0 = old addressing mask, 1 = new addressing mask, 2 = new add. mask + flipped bank sel and chip sel bits
-gpuwattch_xml_file  gpuwattch_gtx480.xml # GPUWattch XML file
-power_simulation_enabled                    1 # Turn on power simulator (1=On, 0=Off)
-power_per_cycle_dump                    0 # Dump detailed power output each cycle
-power_trace_enabled                    0 # produce a file for the power trace (1=On, 0=Off)
-power_trace_zlevel                     6 # Compression level of the power trace output log (0=no comp, 9=highest)
-steady_power_levels_enabled                    0 # produce a file for the steady power levels (1=On, 0=Off)
-steady_state_definition                  8:4 # allowed deviation:number of samples
-gpgpu_max_cycle                        0 # terminates gpu simulation early (0 = no limit)
-gpgpu_max_insn                         0 # terminates gpu simulation early (0 = no limit)
-gpgpu_max_cta                          0 # terminates gpu simulation early (0 = no limit)
-gpgpu_runtime_stat                   500 # display runtime statistics such as dram utilization {<freq>:<flag>}
-liveness_message_freq                    1 # Minimum number of seconds between simulation liveness messages (0 = always print)
-gpgpu_flush_l1_cache                    0 # Flush L1 cache at the end of each kernel call
-gpgpu_flush_l2_cache                    0 # Flush L2 cache at the end of each kernel call
-gpgpu_deadlock_detect                    1 # Stop the simulation at deadlock (1=on (default), 0=off)
-gpgpu_ptx_instruction_classification                    0 # if enabled will classify ptx instruction types per kernel (Max 255 kernels now)
-gpgpu_ptx_sim_mode                     0 # Select between Performance (default) or Functional simulation (1)
-gpgpu_clock_domains 700.0:700.0:700.0:924.0 # Clock Domain Frequencies in MhZ {<Core Clock>:<ICNT Clock>:<L2 Clock>:<DRAM Clock>}
-gpgpu_max_concurrent_kernel                    8 # maximum kernels that can run concurrently on GPU
-gpgpu_cflog_interval                    0 # Interval between each snapshot in control flow logger
-visualizer_enabled                     0 # Turn on visualizer output (1=On, 0=Off)
-visualizer_outputfile                 NULL # Specifies the output log file for visualizer
-visualizer_zlevel                      6 # Compression level of the visualizer output log (0=no comp, 9=highest)
-trace_enabled                          0 # Turn on traces
-trace_components                    none # comma seperated list of traces to enable. Complete list found in trace_streams.tup. Default none
-trace_sampling_core                    0 # The core which is printed using CORE_DPRINTF. Default 0
-trace_sampling_memory_partition                   -1 # The memory partition which is printed using MEMPART_DPRINTF. Default -1 (i.e. all)
-enable_ptx_file_line_stats                    1 # Turn on PTX source line statistic profiling. (1 = On)
-ptx_line_stats_filename gpgpu_inst_stats.txt # Output file for PTX source line statistics.
-save_embedded_ptx                      0 # saves ptx files embedded in binary as <n>.ptx
-keep                                   0 # keep intermediate files created by GPGPU-Sim when interfacing with external programs
-gpgpu_ptx_save_converted_ptxplus                    0 # Saved converted ptxplus to a file
-ptx_opcode_latency_int         4,13,4,5,145 # Opcode latencies for integers <ADD,MAX,MUL,MAD,DIV>Default 1,1,19,25,145
-ptx_opcode_latency_fp          4,13,4,5,39 # Opcode latencies for single precision floating points <ADD,MAX,MUL,MAD,DIV>Default 1,1,1,1,30
-ptx_opcode_latency_dp         8,19,8,8,330 # Opcode latencies for double precision floating points <ADD,MAX,MUL,MAD,DIV>Default 8,8,8,8,335
-ptx_opcode_initiation_int            1,2,2,1,8 # Opcode initiation intervals for integers <ADD,MAX,MUL,MAD,DIV>Default 1,1,4,4,32
-ptx_opcode_initiation_fp            1,2,1,1,4 # Opcode initiation intervals for single precision floating points <ADD,MAX,MUL,MAD,DIV>Default 1,1,1,1,5
-ptx_opcode_initiation_dp         8,16,8,8,130 # Opcode initiation intervals for double precision floating points <ADD,MAX,MUL,MAD,DIV>Default 8,8,8,8,130
DRAM Timing Options:
nbk                                    16 # number of banks
CCD                                     2 # column to column delay
RRD                                     6 # minimal delay between activation of rows in different banks
RCD                                    12 # row to column delay
RAS                                    28 # time needed to activate row
RP                                     12 # time needed to precharge (deactivate) row
RC                                     40 # row cycle time
CDLR                                    5 # switching from write to read (changes tWTR)
WR                                     12 # last data-in to row precharge
CL                                     12 # CAS latency
WL                                      4 # Write latency
nbkgrp                                  4 # number of bank groups
CCDL                                    3 # column to column delay between accesses to different bank groups
RTPL                                    2 # read to precharge delay between accesses to different bank groups
Total number of memory sub partition = 12
addr_dec_mask[CHIP]  = 0000000000000000 	high:64 low:0
addr_dec_mask[BK]    = 000000000000e100 	high:16 low:8
addr_dec_mask[ROW]   = 000000000fff0000 	high:28 low:16
addr_dec_mask[COL]   = 0000000000001eff 	high:13 low:0
addr_dec_mask[BURST] = 000000000000003f 	high:6 low:0
sub_partition_id_mask = 0000000000000100
GPGPU-Sim uArch: clock freqs: 700000000.000000:700000000.000000:700000000.000000:924000000.000000
GPGPU-Sim uArch: clock periods: 0.00000000142857142857:0.00000000142857142857:0.00000000142857142857:0.00000000108225108225
*** Initializing Memory Statistics ***
GPGPU-Sim uArch: interconnect node map (shaderID+MemID to icntID)
GPGPU-Sim uArch: Memory nodes ID start from index: 15
GPGPU-Sim uArch:    0   1   2   3   4
GPGPU-Sim uArch:    5   6   7   8   9
GPGPU-Sim uArch:   10  11  12  13  14
GPGPU-Sim uArch:   15  16  17  18  19
GPGPU-Sim uArch:   20  21  22  23  24
GPGPU-Sim uArch:   25  26
GPGPU-Sim uArch: interconnect node reverse map (icntID to shaderID+MemID)
GPGPU-Sim uArch: Memory nodes start from ID: 15
GPGPU-Sim uArch:    0   1   2   3   4
GPGPU-Sim uArch:    5   6   7   8   9
GPGPU-Sim uArch:   10  11  12  13  14
GPGPU-Sim uArch:   15  16  17  18  19
GPGPU-Sim uArch:   20  21  22  23  24
GPGPU-Sim uArch:   25  26
2a552cef618c3eed1202856b15bdbc61  /home/scratch/adwait/applications/benchmarks/CUDA/RAY/gpgpu_ptx_sim__RAY
GPGPU-Sim uArch: performance model initialization complete.
GPGPU-Sim PTX: __cudaRegisterFatBinary, fat_cubin_handle = 1, filename=rayTracing.cu
self exe links to: /home/scratch/adwait/applications/benchmarks/CUDA/RAY/gpgpu_ptx_sim__RAY
Running md5sum using "md5sum /home/scratch/adwait/applications/benchmarks/CUDA/RAY/gpgpu_ptx_sim__RAY "
Running cuobjdump using "$CUDA_INSTALL_PATH/bin/cuobjdump -ptx -elf -sass /home/scratch/adwait/applications/benchmarks/CUDA/RAY/gpgpu_ptx_sim__RAY > _cuobjdump_complete_output_t7NPGz"
Parsing file _cuobjdump_complete_output_t7NPGz
######### cuobjdump parser ########
## Adding new section ELF
Adding arch: sm_20
Adding identifier: rayTracing.cu
## Adding new section PTX
Adding ptx filename: _cuobjdump_1.ptx
Adding arch: sm_20
Adding identifier: rayTracing.cu
Done parsing!!!
GPGPU-Sim PTX: __cudaRegisterFunction _Z6renderPjP4Nodejjff : hostFun 0x0x40d033, fat_cubin_handle = 1
GPGPU-Sim PTX: allocating stack frame region for .param "__cudaretf__Zmi6float3S_" from 0x0 to 0xc
GPGPU-Sim PTX: allocating stack frame region for .param "__cudaparmf1__Zmi6float3S_" from 0xc to 0x18
GPGPU-Sim PTX: allocating stack frame region for .param "__cudaparmf2__Zmi6float3S_" from 0x18 to 0x24
GPGPU-Sim PTX: allocating stack frame region for .param "__cudaretf__Z9normalize6float3" from 0x0 to 0xc
GPGPU-Sim PTX: allocating stack frame region for .param "__cudaparmf1__Z9normalize6float3" from 0xc to 0x18
GPGPU-Sim PTX: allocating stack frame region for .param "__cudaretf__Z18intersectionSphere5Rayon6float3f" from 0x0 to 0x4
GPGPU-Sim PTX: allocating stack frame region for .param "__cudaparmf1__Z18intersectionSphere5Rayon6float3f" from 0x4 to 0x1c
GPGPU-Sim PTX: allocating stack frame region for .param "__cudaparmf2__Z18intersectionSphere5Rayon6float3f" from 0x1c to 0x28
GPGPU-Sim PTX: allocating stack frame region for .param "__cudaparmf3__Z18intersectionSphere5Rayon6float3f" from 0x28 to 0x2c
GPGPU-Sim PTX: allocating stack frame region for .param "__cudaretf__Z16intersectionPlan5Rayon6float3S0_" from 0x0 to 0x4
GPGPU-Sim PTX: allocating stack frame region for .param "__cudaparmf1__Z16intersectionPlan5Rayon6float3S0_" from 0x4 to 0x1c
GPGPU-Sim PTX: allocating stack frame region for .param "__cudaparmf2__Z16intersectionPlan5Rayon6float3S0_" from 0x1c to 0x28
GPGPU-Sim PTX: allocating stack frame region for .param "__cudaparmf3__Z16intersectionPlan5Rayon6float3S0_" from 0x28 to 0x34
GPGPU-Sim PTX: allocating stack frame region for .param "__cudaretf__Z10getNormale6float3S_" from 0x0 to 0xc
GPGPU-Sim PTX: allocating stack frame region for .param "__cudaparmf1__Z10getNormale6float3S_" from 0xc to 0x18
GPGPU-Sim PTX: allocating stack frame region for .param "__cudaparmf2__Z10getNormale6float3S_" from 0x18 to 0x24
GPGPU-Sim PTX: allocating stack frame region for .param "__cudaretf__Z11getNormaleP6float3" from 0x0 to 0xc
GPGPU-Sim PTX: allocating stack frame region for .param "__cudaparmf1__Z11getNormaleP6float3" from 0xc to 0x18
GPGPU-Sim PTX: allocating stack frame region for .param "__cudaretf__Z14rgbaFloatToInt6float4" from 0x0 to 0x4
GPGPU-Sim PTX: allocating stack frame region for .param "__cudaparmf1__Z14rgbaFloatToInt6float4" from 0x4 to 0x14
GPGPU-Sim PTX: allocating stack frame region for .param "__cudaretf__Z12notShadowRayP4Node6float3S1_f" from 0x0 to 0x4
GPGPU-Sim PTX: allocating stack frame region for .param "__cudaparmf1__Z12notShadowRayP4Node6float3S1_f" from 0x4 to 0xc
GPGPU-Sim PTX: allocating stack frame region for .param "__cudaparmf2__Z12notShadowRayP4Node6float3S1_f" from 0xc to 0x18
GPGPU-Sim PTX: allocating stack frame region for .param "__cudaparmf3__Z12notShadowRayP4Node6float3S1_f" from 0x18 to 0x24
GPGPU-Sim PTX: allocating stack frame region for .param "__cudaparmf4__Z12notShadowRayP4Node6float3S1_f" from 0x24 to 0x28
GPGPU-Sim PTX: allocating stack frame region for .param "__cudaretf__Z15float2int_pow20f" from 0x0 to 0x4
GPGPU-Sim PTX: allocating stack frame region for .param "__cudaparmf1__Z15float2int_pow20f" from 0x4 to 0x8
GPGPU-Sim PTX: allocating stack frame region for .param "__cudaretf__Z15float2int_pow50f" from 0x0 to 0x4
GPGPU-Sim PTX: allocating stack frame region for .param "__cudaparmf1__Z15float2int_pow50f" from 0x4 to 0x8
GPGPU-Sim PTX: allocating stack frame region for .param "__cudaparmf1__ZN4dim3C1Ejjj" from 0x0 to 0x8
GPGPU-Sim PTX: allocating stack frame region for .param "__cudaparmf2__ZN4dim3C1Ejjj" from 0x8 to 0xc
GPGPU-Sim PTX: allocating stack frame region for .param "__cudaparmf3__ZN4dim3C1Ejjj" from 0xc to 0x10
GPGPU-Sim PTX: allocating stack frame region for .param "__cudaparmf4__ZN4dim3C1Ejjj" from 0x10 to 0x14
GPGPU-Sim PTX: instruction assembly for function '_Zmi6float3S_'...   done.
GPGPU-Sim PTX: finding reconvergence points for '_Zmi6float3S_'...
GPGPU-Sim PTX: Finding dominators for '_Zmi6float3S_'...
GPGPU-Sim PTX: Finding immediate dominators for '_Zmi6float3S_'...
GPGPU-Sim PTX: Finding postdominators for '_Zmi6float3S_'...
GPGPU-Sim PTX: Finding immediate postdominators for '_Zmi6float3S_'...
GPGPU-Sim PTX: pre-decoding instructions for '_Zmi6float3S_'...
GPGPU-Sim PTX: reconvergence points for _Zmi6float3S_...
GPGPU-Sim PTX: ... end of reconvergence points for _Zmi6float3S_
GPGPU-Sim PTX: ... done pre-decoding instructions for '_Zmi6float3S_'.
GPGPU-Sim PTX: instruction assembly for function '_Z9normalize6float3'...   done.
GPGPU-Sim PTX: finding reconvergence points for '_Z9normalize6float3'...
GPGPU-Sim PTX: Finding dominators for '_Z9normalize6float3'...
GPGPU-Sim PTX: Finding immediate dominators for '_Z9normalize6float3'...
GPGPU-Sim PTX: Finding postdominators for '_Z9normalize6float3'...
GPGPU-Sim PTX: Finding immediate postdominators for '_Z9normalize6float3'...
GPGPU-Sim PTX: pre-decoding instructions for '_Z9normalize6float3'...
GPGPU-Sim PTX: reconvergence points for _Z9normalize6float3...
GPGPU-Sim PTX: ... end of reconvergence points for _Z9normalize6float3
GPGPU-Sim PTX: ... done pre-decoding instructions for '_Z9normalize6float3'.
GPGPU-Sim PTX: instruction assembly for function '_Z18intersectionSphere5Rayon6float3f'...   done.
GPGPU-Sim PTX: finding reconvergence points for '_Z18intersectionSphere5Rayon6float3f'...
GPGPU-Sim PTX: Finding dominators for '_Z18intersectionSphere5Rayon6float3f'...
GPGPU-Sim PTX: Finding immediate dominators for '_Z18intersectionSphere5Rayon6float3f'...
GPGPU-Sim PTX: Finding postdominators for '_Z18intersectionSphere5Rayon6float3f'...
GPGPU-Sim PTX: Finding immediate postdominators for '_Z18intersectionSphere5Rayon6float3f'...
GPGPU-Sim PTX: pre-decoding instructions for '_Z18intersectionSphere5Rayon6float3f'...
GPGPU-Sim PTX: reconvergence points for _Z18intersectionSphere5Rayon6float3f...
GPGPU-Sim PTX:  1 (potential) branch divergence @  PC=0x250 (_1.ptx:173) @%p2 bra $Lt_2_3074;
GPGPU-Sim PTX:    immediate post dominator      @  PC=0x2c0 (_1.ptx:193) mov.f32 %f39, %f32;
GPGPU-Sim PTX:  2 (potential) branch divergence @  PC=0x260 (_1.ptx:175) bra.uni $Lt_2_2818;
GPGPU-Sim PTX:    immediate post dominator      @  PC=0x2c0 (_1.ptx:193) mov.f32 %f39, %f32;
GPGPU-Sim PTX:  3 (potential) branch divergence @  PC=0x280 (_1.ptx:180) @!%p3 bra $Lt_2_3586;
GPGPU-Sim PTX:    immediate post dominator      @  PC=0x2c0 (_1.ptx:193) mov.f32 %f39, %f32;
GPGPU-Sim PTX:  4 (potential) branch divergence @  PC=0x290 (_1.ptx:182) bra.uni $Lt_2_3330;
GPGPU-Sim PTX:    immediate post dominator      @  PC=0x2c0 (_1.ptx:193) mov.f32 %f39, %f32;
GPGPU-Sim PTX: ... end of reconvergence points for _Z18intersectionSphere5Rayon6float3f
GPGPU-Sim PTX: ... done pre-decoding instructions for '_Z18intersectionSphere5Rayon6float3f'.
GPGPU-Sim PTX: instruction assembly for function '_Z16intersectionPlan5Rayon6float3S0_'...   done.
GPGPU-Sim PTX: finding reconvergence points for '_Z16intersectionPlan5Rayon6float3S0_'...
GPGPU-Sim PTX: Finding dominators for '_Z16intersectionPlan5Rayon6float3S0_'...
GPGPU-Sim PTX: Finding immediate dominators for '_Z16intersectionPlan5Rayon6float3S0_'...
GPGPU-Sim PTX: Finding postdominators for '_Z16intersectionPlan5Rayon6float3S0_'...
GPGPU-Sim PTX: Finding immediate postdominators for '_Z16intersectionPlan5Rayon6float3S0_'...
GPGPU-Sim PTX: pre-decoding instructions for '_Z16intersectionPlan5Rayon6float3S0_'...
GPGPU-Sim PTX: reconvergence points for _Z16intersectionPlan5Rayon6float3S0_...
GPGPU-Sim PTX:  1 (potential) branch divergence @  PC=0x320 (_1.ptx:214) @!%p1 bra $Lt_3_2050;
GPGPU-Sim PTX:    immediate post dominator      @  PC=0x368 (_1.ptx:227) mov.f32 %f14, %f9;
GPGPU-Sim PTX:  2 (potential) branch divergence @  PC=0x330 (_1.ptx:216) bra.uni $Lt_3_1794;
GPGPU-Sim PTX:    immediate post dominator      @  PC=0x368 (_1.ptx:227) mov.f32 %f14, %f9;
GPGPU-Sim PTX: ... end of reconvergence points for _Z16intersectionPlan5Rayon6float3S0_
GPGPU-Sim PTX: ... done pre-decoding instructions for '_Z16intersectionPlan5Rayon6float3S0_'.
GPGPU-Sim PTX: instruction assembly for function '_Z10getNormale6float3S_'...   done.
GPGPU-Sim PTX: finding reconvergence points for '_Z10getNormale6float3S_'...
GPGPU-Sim PTX: Finding dominators for '_Z10getNormale6float3S_'...
GPGPU-Sim PTX: Finding immediate dominators for '_Z10getNormale6float3S_'...
GPGPU-Sim PTX: Finding postdominators for '_Z10getNormale6float3S_'...
GPGPU-Sim PTX: Finding immediate postdominators for '_Z10getNormale6float3S_'...
GPGPU-Sim PTX: pre-decoding instructions for '_Z10getNormale6float3S_'...
GPGPU-Sim PTX: reconvergence points for _Z10getNormale6float3S_...
GPGPU-Sim PTX: ... end of reconvergence points for _Z10getNormale6float3S_
GPGPU-Sim PTX: ... done pre-decoding instructions for '_Z10getNormale6float3S_'.
GPGPU-Sim PTX: instruction assembly for function '_Z11getNormaleP6float3'...   done.
GPGPU-Sim PTX: finding reconvergence points for '_Z11getNormaleP6float3'...
GPGPU-Sim PTX: Finding dominators for '_Z11getNormaleP6float3'...
GPGPU-Sim PTX: Finding immediate dominators for '_Z11getNormaleP6float3'...
GPGPU-Sim PTX: Finding postdominators for '_Z11getNormaleP6float3'...
GPGPU-Sim PTX: Finding immediate postdominators for '_Z11getNormaleP6float3'...
GPGPU-Sim PTX: pre-decoding instructions for '_Z11getNormaleP6float3'...
GPGPU-Sim PTX: reconvergence points for _Z11getNormaleP6float3...
GPGPU-Sim PTX: ... end of reconvergence points for _Z11getNormaleP6float3
GPGPU-Sim PTX: ... done pre-decoding instructions for '_Z11getNormaleP6float3'.
GPGPU-Sim PTX: instruction assembly for function '_Z14rgbaFloatToInt6float4'...   done.
GPGPU-Sim PTX: finding reconvergence points for '_Z14rgbaFloatToInt6float4'...
GPGPU-Sim PTX: Finding dominators for '_Z14rgbaFloatToInt6float4'...
GPGPU-Sim PTX: Finding immediate dominators for '_Z14rgbaFloatToInt6float4'...
GPGPU-Sim PTX: Finding postdominators for '_Z14rgbaFloatToInt6float4'...
GPGPU-Sim PTX: Finding immediate postdominators for '_Z14rgbaFloatToInt6float4'...
GPGPU-Sim PTX: pre-decoding instructions for '_Z14rgbaFloatToInt6float4'...
GPGPU-Sim PTX: reconvergence points for _Z14rgbaFloatToInt6float4...
GPGPU-Sim PTX: ... end of reconvergence points for _Z14rgbaFloatToInt6float4
GPGPU-Sim PTX: ... done pre-decoding instructions for '_Z14rgbaFloatToInt6float4'.
GPGPU-Sim PTX: allocating global region for "cnode" from 0x100 to 0x1a0 (global memory space)
GPGPU-Sim PTX: instruction assembly for function '_Z12notShadowRayP4Node6float3S1_f'...   done.
GPGPU-Sim PTX: finding reconvergence points for '_Z12notShadowRayP4Node6float3S1_f'...
GPGPU-Sim PTX: Finding dominators for '_Z12notShadowRayP4Node6float3S1_f'...
GPGPU-Sim PTX: Finding immediate dominators for '_Z12notShadowRayP4Node6float3S1_f'...
GPGPU-Sim PTX: Finding postdominators for '_Z12notShadowRayP4Node6float3S1_f'...
GPGPU-Sim PTX: Finding immediate postdominators for '_Z12notShadowRayP4Node6float3S1_f'...
GPGPU-Sim PTX: pre-decoding instructions for '_Z12notShadowRayP4Node6float3S1_f'...
GPGPU-Sim PTX: reconvergence points for _Z12notShadowRayP4Node6float3S1_f...
GPGPU-Sim PTX:  1 (potential) branch divergence @  PC=0x638 (_1.ptx:364) @%p1 bra $Lt_7_8450;
GPGPU-Sim PTX:    immediate post dominator      @  PC=0x828 (_1.ptx:441) mov.f32 %f58, 0f00000000;    // 0
GPGPU-Sim PTX:  2 (potential) branch divergence @  PC=0x658 (_1.ptx:369) @!%p2 bra $Lt_7_8962;
GPGPU-Sim PTX:    immediate post dominator      @  PC=0x6b8 (_1.ptx:385) mov.f32 %f28, %f20;
GPGPU-Sim PTX:  3 (potential) branch divergence @  PC=0x668 (_1.ptx:371) bra.uni $Lt_7_8706;
GPGPU-Sim PTX:    immediate post dominator      @  PC=0x6b8 (_1.ptx:385) mov.f32 %f28, %f20;
GPGPU-Sim PTX:  4 (potential) branch divergence @  PC=0x6c0 (_1.ptx:386) bra.uni $Lt_7_8194;
GPGPU-Sim PTX:    immediate post dominator      @  PC=0x828 (_1.ptx:441) mov.f32 %f58, 0f00000000;    // 0
GPGPU-Sim PTX:  5 (potential) branch divergence @  PC=0x7b0 (_1.ptx:418) @%p5 bra $Lt_7_9474;
GPGPU-Sim PTX:    immediate post dominator      @  PC=0x820 (_1.ptx:438) mov.f32 %f28, %f51;
GPGPU-Sim PTX:  6 (potential) branch divergence @  PC=0x7c0 (_1.ptx:420) bra.uni $Lt_7_9730;
GPGPU-Sim PTX:    immediate post dominator      @  PC=0x820 (_1.ptx:438) mov.f32 %f28, %f51;
GPGPU-Sim PTX:  7 (potential) branch divergence @  PC=0x7e0 (_1.ptx:425) @!%p6 bra $Lt_7_9986;
GPGPU-Sim PTX:    immediate post dominator      @  PC=0x820 (_1.ptx:438) mov.f32 %f28, %f51;
GPGPU-Sim PTX:  8 (potential) branch divergence @  PC=0x7f0 (_1.ptx:427) bra.uni $Lt_7_9730;
GPGPU-Sim PTX:    immediate post dominator      @  PC=0x820 (_1.ptx:438) mov.f32 %f28, %f51;
GPGPU-Sim PTX:  9 (potential) branch divergence @  PC=0x838 (_1.ptx:443) @!%p7 bra $Lt_7_10242;
GPGPU-Sim PTX:    immediate post dominator      @  PC=0x8e8 (_1.ptx:468) add.s32 %r1, %r1, 1;
GPGPU-Sim PTX: 10 (potential) branch divergence @  PC=0x8d8 (_1.ptx:463) @!%p8 bra $Lt_7_10242;
GPGPU-Sim PTX:    immediate post dominator      @  PC=0x8e8 (_1.ptx:468) add.s32 %r1, %r1, 1;
GPGPU-Sim PTX: 11 (potential) branch divergence @  PC=0x908 (_1.ptx:472) @%p9 bra $Lt_7_10754;
GPGPU-Sim PTX:    immediate post dominator      @  PC=0x960 (_1.ptx:486) selp.s32 %r10, 1, 0, %p11;
GPGPU-Sim PTX: 12 (potential) branch divergence @  PC=0x930 (_1.ptx:477) @%p10 bra $L_7_7170;
GPGPU-Sim PTX:    immediate post dominator      @  PC=0x960 (_1.ptx:486) selp.s32 %r10, 1, 0, %p11;
GPGPU-Sim PTX: 13 (potential) branch divergence @  PC=0x938 (_1.ptx:478) bra.uni $L_7_7938;
GPGPU-Sim PTX:    immediate post dominator      @  PC=0x960 (_1.ptx:486) selp.s32 %r10, 1, 0, %p11;
GPGPU-Sim PTX: ... end of reconvergence points for _Z12notShadowRayP4Node6float3S1_f
GPGPU-Sim PTX: ... done pre-decoding instructions for '_Z12notShadowRayP4Node6float3S1_f'.
GPGPU-Sim PTX: instruction assembly for function '_Z15float2int_pow20f'...   done.
GPGPU-Sim PTX: finding reconvergence points for '_Z15float2int_pow20f'...
GPGPU-Sim PTX: Finding dominators for '_Z15float2int_pow20f'...
GPGPU-Sim PTX: Finding immediate dominators for '_Z15float2int_pow20f'...
GPGPU-Sim PTX: Finding postdominators for '_Z15float2int_pow20f'...
GPGPU-Sim PTX: Finding immediate postdominators for '_Z15float2int_pow20f'...
GPGPU-Sim PTX: pre-decoding instructions for '_Z15float2int_pow20f'...
GPGPU-Sim PTX: reconvergence points for _Z15float2int_pow20f...
GPGPU-Sim PTX: ... end of reconvergence points for _Z15float2int_pow20f
GPGPU-Sim PTX: ... done pre-decoding instructions for '_Z15float2int_pow20f'.
GPGPU-Sim PTX: instruction assembly for function '_Z15float2int_pow50f'...   done.
GPGPU-Sim PTX: finding reconvergence points for '_Z15float2int_pow50f'...
GPGPU-Sim PTX: Finding dominators for '_Z15float2int_pow50f'...
GPGPU-Sim PTX: Finding immediate dominators for '_Z15float2int_pow50f'...
GPGPU-Sim PTX: Finding postdominators for '_Z15float2int_pow50f'...
GPGPU-Sim PTX: Finding immediate postdominators for '_Z15float2int_pow50f'...
GPGPU-Sim PTX: pre-decoding instructions for '_Z15float2int_pow50f'...
GPGPU-Sim PTX: reconvergence points for _Z15float2int_pow50f...
GPGPU-Sim PTX: ... end of reconvergence points for _Z15float2int_pow50f
GPGPU-Sim PTX: ... done pre-decoding instructions for '_Z15float2int_pow50f'.
GPGPU-Sim PTX: allocating constant region for "MView" from 0x200 to 0x230 (global memory space) 1
GPGPU-Sim PTX: allocating stack frame region for .local "__cuda___cuda_local_var_36206_9_non_const_pile_32240" from 0x0 to 0x50
GPGPU-Sim PTX: instruction assembly for function '_Z6renderPjP4Nodejjff'...   done.
GPGPU-Sim PTX: finding reconvergence points for '_Z6renderPjP4Nodejjff'...
GPGPU-Sim PTX: Finding dominators for '_Z6renderPjP4Nodejjff'...
GPGPU-Sim PTX: Finding immediate dominators for '_Z6renderPjP4Nodejjff'...
GPGPU-Sim PTX: Finding postdominators for '_Z6renderPjP4Nodejjff'...
GPGPU-Sim PTX: Finding immediate postdominators for '_Z6renderPjP4Nodejjff'...
GPGPU-Sim PTX: pre-decoding instructions for '_Z6renderPjP4Nodejjff'...
GPGPU-Sim PTX: reconvergence points for _Z6renderPjP4Nodejjff...
GPGPU-Sim PTX:  1 (potential) branch divergence @  PC=0xdb0 (_1.ptx:663) @%p1 bra $Lt_10_44034;
GPGPU-Sim PTX:    immediate post dominator      @  PC=0x2370 (_1.ptx:1495) exit;
GPGPU-Sim PTX:  2 (potential) branch divergence @  PC=0x1028 (_1.ptx:751) @%p2 bra $Lt_10_45570;
GPGPU-Sim PTX:    immediate post dominator      @  PC=0x11b8 (_1.ptx:815) mov.f32 %f108, 0f00000000;   // 0
GPGPU-Sim PTX:  3 (potential) branch divergence @  PC=0x1048 (_1.ptx:756) @!%p3 bra $Lt_10_46082;
GPGPU-Sim PTX:    immediate post dominator      @  PC=0x1090 (_1.ptx:769) mov.f32 %f87, %f82;
GPGPU-Sim PTX:  4 (potential) branch divergence @  PC=0x1058 (_1.ptx:758) bra.uni $Lt_10_45826;
GPGPU-Sim PTX:    immediate post dominator      @  PC=0x1090 (_1.ptx:769) mov.f32 %f87, %f82;
GPGPU-Sim PTX:  5 (potential) branch divergence @  PC=0x1098 (_1.ptx:770) bra.uni $Lt_10_45314;
GPGPU-Sim PTX:    immediate post dominator      @  PC=0x11b8 (_1.ptx:815) mov.f32 %f108, 0f00000000;   // 0
GPGPU-Sim PTX:  6 (potential) branch divergence @  PC=0x1140 (_1.ptx:793) @%p6 bra $Lt_10_46594;
GPGPU-Sim PTX:    immediate post dominator      @  PC=0x11b0 (_1.ptx:813) mov.f32 %f87, %f101;
GPGPU-Sim PTX:  7 (potential) branch divergence @  PC=0x1150 (_1.ptx:795) bra.uni $Lt_10_46850;
GPGPU-Sim PTX:    immediate post dominator      @  PC=0x11b0 (_1.ptx:813) mov.f32 %f87, %f101;
GPGPU-Sim PTX:  8 (potential) branch divergence @  PC=0x1170 (_1.ptx:800) @!%p7 bra $Lt_10_47106;
GPGPU-Sim PTX:    immediate post dominator      @  PC=0x11b0 (_1.ptx:813) mov.f32 %f87, %f101;
GPGPU-Sim PTX:  9 (potential) branch divergence @  PC=0x1180 (_1.ptx:802) bra.uni $Lt_10_46850;
GPGPU-Sim PTX:    immediate post dominator      @  PC=0x11b0 (_1.ptx:813) mov.f32 %f87, %f101;
GPGPU-Sim PTX: 10 (potential) branch divergence @  PC=0x11f8 (_1.ptx:823) @%p8 bra $Lt_10_47362;
GPGPU-Sim PTX:    immediate post dominator      @  PC=0x1210 (_1.ptx:829) add.s32 %r25, %r25, 1;
GPGPU-Sim PTX: 11 (potential) branch divergence @  PC=0x1230 (_1.ptx:833) @%p9 bra $Lt_10_45058;
GPGPU-Sim PTX:    immediate post dominator      @  PC=0x1238 (_1.ptx:834) mov.f32 %f109, 0f00000000;   // 0
GPGPU-Sim PTX: 12 (potential) branch divergence @  PC=0x1280 (_1.ptx:843) @%p10 bra $Lt_10_48130;
GPGPU-Sim PTX:    immediate post dominator      @  PC=0x2140 (_1.ptx:1416) add.s32 %r23, %r23, 1;
GPGPU-Sim PTX: 13 (potential) branch divergence @  PC=0x1330 (_1.ptx:868) @%p11 bra $Lt_10_48898;
GPGPU-Sim PTX:    immediate post dominator      @  PC=0x13b8 (_1.ptx:888) sub.f32 %f136, %f21, %f119;
GPGPU-Sim PTX: 14 (potential) branch divergence @  PC=0x1350 (_1.ptx:873) bra.uni $Lt_10_48642;
GPGPU-Sim PTX:    immediate post dominator      @  PC=0x13b8 (_1.ptx:888) sub.f32 %f136, %f21, %f119;
GPGPU-Sim PTX: 15 (potential) branch divergence @  PC=0x1430 (_1.ptx:903) @!%p12 bra $Lt_10_49410;
GPGPU-Sim PTX:    immediate post dominator      @  PC=0x1470 (_1.ptx:915) mov.f32 %f153, 0f3d4ccccd;   // 0.05
GPGPU-Sim PTX: 16 (potential) branch divergence @  PC=0x1450 (_1.ptx:908) bra.uni $Lt_10_49154;
GPGPU-Sim PTX:    immediate post dominator      @  PC=0x1470 (_1.ptx:915) mov.f32 %f153, 0f3d4ccccd;   // 0.05
GPGPU-Sim PTX: 17 (potential) branch divergence @  PC=0x1578 (_1.ptx:949) @!%p13 bra $Lt_10_58114;
GPGPU-Sim PTX:    immediate post dominator      @  PC=0x2080 (_1.ptx:1388) add.f32 %f399, %f126, %f126;
GPGPU-Sim PTX: 18 (potential) branch divergence @  PC=0x15c0 (_1.ptx:961) @%p14 bra $Lt_10_49922;
GPGPU-Sim PTX:    immediate post dominator      @  PC=0x17b0 (_1.ptx:1039) mov.f32 %f221, 0f00000000;   // 0
GPGPU-Sim PTX: 19 (potential) branch divergence @  PC=0x15e0 (_1.ptx:966) @!%p15 bra $Lt_10_50434;
GPGPU-Sim PTX:    immediate post dominator      @  PC=0x1638 (_1.ptx:982) mov.f32 %f190, %f183;
GPGPU-Sim PTX: 20 (potential) branch divergence @  PC=0x15f0 (_1.ptx:968) bra.uni $Lt_10_50178;
GPGPU-Sim PTX:    immediate post dominator      @  PC=0x1638 (_1.ptx:982) mov.f32 %f190, %f183;
GPGPU-Sim PTX: 21 (potential) branch divergence @  PC=0x1640 (_1.ptx:983) bra.uni $Lt_10_49666;
GPGPU-Sim PTX:    immediate post dominator      @  PC=0x17b0 (_1.ptx:1039) mov.f32 %f221, 0f00000000;   // 0
GPGPU-Sim PTX: 22 (potential) branch divergence @  PC=0x1738 (_1.ptx:1016) @%p18 bra $Lt_10_50946;
GPGPU-Sim PTX:    immediate post dominator      @  PC=0x17a8 (_1.ptx:1036) mov.f32 %f190, %f214;
GPGPU-Sim PTX: 23 (potential) branch divergence @  PC=0x1748 (_1.ptx:1018) bra.uni $Lt_10_51202;
GPGPU-Sim PTX:    immediate post dominator      @  PC=0x17a8 (_1.ptx:1036) mov.f32 %f190, %f214;
GPGPU-Sim PTX: 24 (potential) branch divergence @  PC=0x1768 (_1.ptx:1023) @!%p19 bra $Lt_10_51458;
GPGPU-Sim PTX:    immediate post dominator      @  PC=0x17a8 (_1.ptx:1036) mov.f32 %f190, %f214;
GPGPU-Sim PTX: 25 (potential) branch divergence @  PC=0x1778 (_1.ptx:1025) bra.uni $Lt_10_51202;
GPGPU-Sim PTX:    immediate post dominator      @  PC=0x17a8 (_1.ptx:1036) mov.f32 %f190, %f214;
GPGPU-Sim PTX: 26 (potential) branch divergence @  PC=0x17c0 (_1.ptx:1041) @!%p20 bra $Lt_10_58370;
GPGPU-Sim PTX:    immediate post dominator      @  PC=0x1828 (_1.ptx:1057) add.s32 %r50, %r50, 1;
GPGPU-Sim PTX: 27 (potential) branch divergence @  PC=0x1818 (_1.ptx:1052) @!%p21 bra $Lt_10_58370;
GPGPU-Sim PTX:    immediate post dominator      @  PC=0x1828 (_1.ptx:1057) add.s32 %r50, %r50, 1;
GPGPU-Sim PTX: 28 (potential) branch divergence @  PC=0x1848 (_1.ptx:1061) @%p22 bra $Lt_10_58882;
GPGPU-Sim PTX:    immediate post dominator      @  PC=0x1880 (_1.ptx:1071) @!%p23 bra $Lt_10_58114;
GPGPU-Sim PTX: 29 (potential) branch divergence @  PC=0x1860 (_1.ptx:1064) @%p23 bra $L_10_42498;
GPGPU-Sim PTX:    immediate post dominator      @  PC=0x1880 (_1.ptx:1071) @!%p23 bra $Lt_10_58114;
GPGPU-Sim PTX: 30 (potential) branch divergence @  PC=0x1868 (_1.ptx:1065) bra.uni $L_10_43266;
GPGPU-Sim PTX:    immediate post dominator      @  PC=0x1880 (_1.ptx:1071) @!%p23 bra $Lt_10_58114;
GPGPU-Sim PTX: 31 (potential) branch divergence @  PC=0x1880 (_1.ptx:1071) @!%p23 bra $Lt_10_58114;
GPGPU-Sim PTX:    immediate post dominator      @  PC=0x2080 (_1.ptx:1388) add.f32 %f399, %f126, %f126;
GPGPU-Sim PTX: 32 (potential) branch divergence @  PC=0x19c8 (_1.ptx:1115) @!%p24 bra $Lt_10_51714;
GPGPU-Sim PTX:    immediate post dominator      @  PC=0x2040 (_1.ptx:1375) mov.f32 %f394, 0f3f4ccccd;   // 0.8
GPGPU-Sim PTX: 33 (potential) branch divergence @  PC=0x19d8 (_1.ptx:1118) bra.uni $LDWendi___isnanf_192_1;
GPGPU-Sim PTX:    immediate post dominator      @  PC=0x2040 (_1.ptx:1375) mov.f32 %f394, 0f3f4ccccd;   // 0.8
GPGPU-Sim PTX: 34 (potential) branch divergence @  PC=0x19f8 (_1.ptx:1124) @!%p25 bra $Lt_10_7682;
GPGPU-Sim PTX:    immediate post dominator      @  PC=0x2040 (_1.ptx:1375) mov.f32 %f394, 0f3f4ccccd;   // 0.8
GPGPU-Sim PTX: 35 (potential) branch divergence @  PC=0x1a00 (_1.ptx:1125) bra.uni $Lt_10_7938;
GPGPU-Sim PTX:    immediate post dominator      @  PC=0x1a20 (_1.ptx:1133) mov.f32 %f272, 0f7f800000;   // ((1.0F)/(0.0F))
GPGPU-Sim PTX: 36 (potential) branch divergence @  PC=0x1a18 (_1.ptx:1130) bra.uni $LDWendi___isnanf_192_1;
GPGPU-Sim PTX:    immediate post dominator      @  PC=0x2040 (_1.ptx:1375) mov.f32 %f394, 0f3f4ccccd;   // 0.8
GPGPU-Sim PTX: 37 (potential) branch divergence @  PC=0x1a30 (_1.ptx:1135) @!%p26 bra $Lt_10_52226;
GPGPU-Sim PTX:    immediate post dominator      @  PC=0x2040 (_1.ptx:1375) mov.f32 %f394, 0f3f4ccccd;   // 0.8
GPGPU-Sim PTX: 38 (potential) branch divergence @  PC=0x1a40 (_1.ptx:1138) bra.uni $LDWendi___isnanf_192_1;
GPGPU-Sim PTX:    immediate post dominator      @  PC=0x2040 (_1.ptx:1375) mov.f32 %f394, 0f3f4ccccd;   // 0.8
GPGPU-Sim PTX: 39 (potential) branch divergence @  PC=0x1a58 (_1.ptx:1142) @!%p27 bra $Lt_10_52738;
GPGPU-Sim PTX:    immediate post dominator      @  PC=0x2040 (_1.ptx:1375) mov.f32 %f394, 0f3f4ccccd;   // 0.8
GPGPU-Sim PTX: 40 (potential) branch divergence @  PC=0x1ab8 (_1.ptx:1155) bra.uni $LDWendi___isnanf_192_1;
GPGPU-Sim PTX:    immediate post dominator      @  PC=0x2040 (_1.ptx:1375) mov.f32 %f394, 0f3f4ccccd;   // 0.8
GPGPU-Sim PTX: 41 (potential) branch divergence @  PC=0x1ad0 (_1.ptx:1159) @!%p29 bra $Lt_10_53250;
GPGPU-Sim PTX:    immediate post dominator      @  PC=0x2040 (_1.ptx:1375) mov.f32 %f394, 0f3f4ccccd;   // 0.8
GPGPU-Sim PTX: 42 (potential) branch divergence @  PC=0x1b20 (_1.ptx:1170) @!%p30 bra $Lt_10_53762;
GPGPU-Sim PTX:    immediate post dominator      @  PC=0x1b40 (_1.ptx:1177) mov.f32 %f268, %f284;
GPGPU-Sim PTX: 43 (potential) branch divergence @  PC=0x1b48 (_1.ptx:1178) bra.uni $LDWendi___isnanf_192_1;
GPGPU-Sim PTX:    immediate post dominator      @  PC=0x2040 (_1.ptx:1375) mov.f32 %f394, 0f3f4ccccd;   // 0.8
GPGPU-Sim PTX: 44 (potential) branch divergence @  PC=0x1b60 (_1.ptx:1183) @!%p31 bra $Lt_10_59394;
GPGPU-Sim PTX:    immediate post dominator      @  PC=0x2040 (_1.ptx:1375) mov.f32 %f394, 0f3f4ccccd;   // 0.8
GPGPU-Sim PTX: 45 (potential) branch divergence @  PC=0x1b88 (_1.ptx:1188) @!%p32 bra $Lt_10_59394;
GPGPU-Sim PTX:    immediate post dominator      @  PC=0x2040 (_1.ptx:1375) mov.f32 %f394, 0f3f4ccccd;   // 0.8
GPGPU-Sim PTX: 46 (potential) branch divergence @  PC=0x1ba0 (_1.ptx:1192) bra.uni $LDWendi___isnanf_192_1;
GPGPU-Sim PTX:    immediate post dominator      @  PC=0x2040 (_1.ptx:1375) mov.f32 %f394, 0f3f4ccccd;   // 0.8
GPGPU-Sim PTX: 47 (potential) branch divergence @  PC=0x1bd8 (_1.ptx:1202) @%p33 bra $Lt_10_54530;
GPGPU-Sim PTX:    immediate post dominator      @  PC=0x1c20 (_1.ptx:1216) sub.s32 %r64, %r64, 127;
GPGPU-Sim PTX: 48 (potential) branch divergence @  PC=0x1c10 (_1.ptx:1211) bra.uni $Lt_10_54274;
GPGPU-Sim PTX:    immediate post dominator      @  PC=0x1c20 (_1.ptx:1216) sub.s32 %r64, %r64, 127;
GPGPU-Sim PTX: 49 (potential) branch divergence @  PC=0x1c58 (_1.ptx:1224) @!%p34 bra $Lt_10_54786;
GPGPU-Sim PTX:    immediate post dominator      @  PC=0x1c78 (_1.ptx:1232) mov.f32 %f302, 0fbf800000;   // -1
GPGPU-Sim PTX: 50 (potential) branch divergence @  PC=0x1eb0 (_1.ptx:1312) @%p35 bra $Lt_10_55298;
GPGPU-Sim PTX:    immediate post dominator      @  PC=0x1ed8 (_1.ptx:1321) mov.f32 %f367, %f365;
GPGPU-Sim PTX: 51 (potential) branch divergence @  PC=0x1f98 (_1.ptx:1346) @!%p38 bra $Lt_10_55810;
GPGPU-Sim PTX:    immediate post dominator      @  PC=0x1fa8 (_1.ptx:1351) mov.f32 %f284, %f386;
GPGPU-Sim PTX: 52 (potential) branch divergence @  PC=0x2018 (_1.ptx:1365) @%p39 bra $Lt_10_56322;
GPGPU-Sim PTX:    immediate post dominator      @  PC=0x2038 (_1.ptx:1372) mov.f32 %f268, %f284;
GPGPU-Sim PTX: 53 (potential) branch divergence @  PC=0x2158 (_1.ptx:1419) @%p40 bra $L_10_42242;
GPGPU-Sim PTX:    immediate post dominator      @  PC=0x2170 (_1.ptx:1424) sub.s32 %r86, %r24, 1;
GPGPU-Sim PTX: 54 (potential) branch divergence @  PC=0x2168 (_1.ptx:1421) @%p41 bra $L_10_41474;
GPGPU-Sim PTX:    immediate post dominator      @  PC=0x2170 (_1.ptx:1424) sub.s32 %r86, %r24, 1;
GPGPU-Sim PTX: 55 (potential) branch divergence @  PC=0x2190 (_1.ptx:1428) @%p42 bra $Lt_10_56834;
GPGPU-Sim PTX:    immediate post dominator      @  PC=0x2288 (_1.ptx:1464) ld.global.u32 %r92, [%rd4+0];
GPGPU-Sim PTX: 56 (potential) branch divergence @  PC=0x2280 (_1.ptx:1461) @%p43 bra $Lt_10_57346;
GPGPU-Sim PTX:    immediate post dominator      @  PC=0x2288 (_1.ptx:1464) ld.global.u32 %r92, [%rd4+0];
GPGPU-Sim PTX: ... end of reconvergence points for _Z6renderPjP4Nodejjff
GPGPU-Sim PTX: ... done pre-decoding instructions for '_Z6renderPjP4Nodejjff'.
GPGPU-Sim PTX: instruction assembly for function '_ZN4dim3C1Ejjj'...   done.
GPGPU-Sim PTX: finding reconvergence points for '_ZN4dim3C1Ejjj'...
GPGPU-Sim PTX: Finding dominators for '_ZN4dim3C1Ejjj'...
GPGPU-Sim PTX: Finding immediate dominators for '_ZN4dim3C1Ejjj'...
GPGPU-Sim PTX: Finding postdominators for '_ZN4dim3C1Ejjj'...
GPGPU-Sim PTX: Finding immediate postdominators for '_ZN4dim3C1Ejjj'...
GPGPU-Sim PTX: pre-decoding instructions for '_ZN4dim3C1Ejjj'...
GPGPU-Sim PTX: reconvergence points for _ZN4dim3C1Ejjj...
GPGPU-Sim PTX: ... end of reconvergence points for _ZN4dim3C1Ejjj
GPGPU-Sim PTX: ... done pre-decoding instructions for '_ZN4dim3C1Ejjj'.
GPGPU-Sim PTX: finished parsing EMBEDDED .ptx file _1.ptx
Adding _cuobjdump_1.ptx with cubin handle 1
GPGPU-Sim PTX: extracting embedded .ptx to temporary file "_ptx_zWZIj1"
Running: cat _ptx_zWZIj1 | sed 's/.version 1.5/.version 1.4/' | sed 's/, texmode_independent//' | sed 's/\(\.extern \.const\[1\] .b8 \w\+\)\[\]/\1\[1\]/' | sed 's/const\[.\]/const\[0\]/g' > _ptx2_neqv2s
GPGPU-Sim PTX: generating ptxinfo using "$CUDA_INSTALL_PATH/bin/ptxas --gpu-name=sm_20 -v _ptx2_neqv2s --output-file  /dev/null 2> _ptx_zWZIj1info"
GPGPU-Sim PTX: Kernel '_Z6renderPjP4Nodejjff' : regs=45, lmem=4, smem=0, cmem=180
GPGPU-Sim PTX: removing ptxinfo using "rm -f _ptx_zWZIj1 _ptx2_neqv2s _ptx_zWZIj1info"
GPGPU-Sim PTX: loading globals with explicit initializers... 
GPGPU-Sim PTX: finished loading globals (0 bytes total).
GPGPU-Sim PTX: loading constants with explicit initializers...  done.
GPGPU-Sim PTX: __cudaRegisterVar: hostVar = 0x632880; deviceAddress = MView; deviceName = MView
GPGPU-Sim PTX: __cudaRegisterVar: Registering const memory space of 48 bytes
GPGPU-Sim PTX registering constant MView (48 bytes) to name mapping
GPGPU-Sim PTX: __cudaRegisterVar: hostVar = 0x6328c0; deviceAddress = cnode; deviceName = cnode
GPGPU-Sim PTX: __cudaRegisterVar: Registering const memory space of 160 bytes
GPGPU-Sim PTX registering constant cnode (160 bytes) to name mapping
GPGPU-Sim PTX: cudaMemcpyToSymbol: symbol = 0x6328c0
GPGPU-Sim PTX: starting gpgpu_ptx_sim_memcpy_symbol with hostVar 0x0x6328c0
GPGPU-Sim PTX: gpgpu_ptx_sim_memcpy_symbol: Found PTX symbol w/ hostVar=0x6328c0
GPGPU-Sim PTX: gpgpu_ptx_sim_memcpy_symbol: copying const memory 160 bytes  to  symbol cnode+0 @0x100 ...
GPGPU-Sim PTX: cudaMemcpyToSymbol: symbol = 0x632880
GPGPU-Sim PTX: starting gpgpu_ptx_sim_memcpy_symbol with hostVar 0x0x632880
GPGPU-Sim PTX: gpgpu_ptx_sim_memcpy_symbol: Found PTX symbol w/ hostVar=0x632880
GPGPU-Sim PTX: gpgpu_ptx_sim_memcpy_symbol: copying const memory 48 bytes  to  symbol MView+0 @0x200 ...

GPGPU-Sim PTX: cudaLaunch for 0x0x40d033 (mode=performance simulation) on stream 0
GPGPU-Sim PTX: pushing kernel '_Z6renderPjP4Nodejjff' to stream 0, gridDim= (16,32,1) blockDim = (16,8,1) 
kernel '_Z6renderPjP4Nodejjff' transfer to GPU hardware scheduler
GPGPU-Sim uArch: Shader 1 bind to kernel 1 '_Z6renderPjP4Nodejjff'
GPGPU-Sim uArch: CTA/core = 5, limited by: regs
GPGPU-Sim uArch: core:  1, cta: 0 initialized @(1,0)
GPGPU-Sim uArch: Shader 2 bind to kernel 1 '_Z6renderPjP4Nodejjff'
GPGPU-Sim uArch: core:  2, cta: 0 initialized @(1,0)
GPGPU-Sim uArch: Shader 3 bind to kernel 1 '_Z6renderPjP4Nodejjff'
GPGPU-Sim uArch: core:  3, cta: 0 initialized @(1,0)
GPGPU-Sim uArch: Shader 4 bind to kernel 1 '_Z6renderPjP4Nodejjff'
GPGPU-Sim uArch: core:  4, cta: 0 initialized @(1,0)
GPGPU-Sim uArch: Shader 5 bind to kernel 1 '_Z6renderPjP4Nodejjff'
GPGPU-Sim uArch: core:  5, cta: 0 initialized @(1,0)
GPGPU-Sim uArch: Shader 6 bind to kernel 1 '_Z6renderPjP4Nodejjff'
GPGPU-Sim uArch: core:  6, cta: 0 initialized @(1,0)
GPGPU-Sim uArch: Shader 7 bind to kernel 1 '_Z6renderPjP4Nodejjff'
GPGPU-Sim uArch: core:  7, cta: 0 initialized @(1,0)
GPGPU-Sim uArch: Shader 8 bind to kernel 1 '_Z6renderPjP4Nodejjff'
GPGPU-Sim uArch: core:  8, cta: 0 initialized @(1,0)
GPGPU-Sim uArch: Shader 9 bind to kernel 1 '_Z6renderPjP4Nodejjff'
GPGPU-Sim uArch: core:  9, cta: 0 initialized @(1,0)
GPGPU-Sim uArch: Shader 10 bind to kernel 1 '_Z6renderPjP4Nodejjff'
GPGPU-Sim uArch: core: 10, cta: 0 initialized @(1,0)
GPGPU-Sim uArch: Shader 11 bind to kernel 1 '_Z6renderPjP4Nodejjff'
GPGPU-Sim uArch: core: 11, cta: 0 initialized @(1,0)
GPGPU-Sim uArch: Shader 12 bind to kernel 1 '_Z6renderPjP4Nodejjff'
GPGPU-Sim uArch: core: 12, cta: 0 initialized @(1,0)
GPGPU-Sim uArch: Shader 13 bind to kernel 1 '_Z6renderPjP4Nodejjff'
GPGPU-Sim uArch: core: 13, cta: 0 initialized @(1,0)
GPGPU-Sim uArch: Shader 14 bind to kernel 1 '_Z6renderPjP4Nodejjff'
GPGPU-Sim uArch: core: 14, cta: 0 initialized @(1,0)
GPGPU-Sim uArch: Shader 0 bind to kernel 1 '_Z6renderPjP4Nodejjff'
GPGPU-Sim uArch: core:  0, cta: 0 initialized @(1,0)
GPGPU-Sim uArch: core:  1, cta: 1 initialized @(2,0)
GPGPU-Sim uArch: core:  2, cta: 1 initialized @(2,0)
GPGPU-Sim uArch: core:  3, cta: 1 initialized @(2,0)
GPGPU-Sim uArch: core:  4, cta: 1 initialized @(2,0)
GPGPU-Sim uArch: core:  5, cta: 1 initialized @(2,0)
GPGPU-Sim uArch: core:  6, cta: 1 initialized @(2,0)
GPGPU-Sim uArch: core:  7, cta: 1 initialized @(2,0)
GPGPU-Sim uArch: core:  8, cta: 1 initialized @(2,0)
GPGPU-Sim uArch: core:  9, cta: 1 initialized @(2,0)
GPGPU-Sim uArch: core: 10, cta: 1 initialized @(2,0)
GPGPU-Sim uArch: core: 11, cta: 1 initialized @(2,0)
GPGPU-Sim uArch: core: 12, cta: 1 initialized @(2,0)
GPGPU-Sim uArch: core: 13, cta: 1 initialized @(2,0)
GPGPU-Sim uArch: core: 14, cta: 1 initialized @(2,0)
GPGPU-Sim uArch: core:  0, cta: 1 initialized @(2,0)
GPGPU-Sim uArch: core:  1, cta: 2 initialized @(3,0)
GPGPU-Sim uArch: core:  2, cta: 2 initialized @(3,0)
GPGPU-Sim uArch: core:  3, cta: 2 initialized @(3,0)
GPGPU-Sim uArch: core:  4, cta: 2 initialized @(3,0)
GPGPU-Sim uArch: core:  5, cta: 2 initialized @(3,0)
GPGPU-Sim uArch: core:  6, cta: 2 initialized @(3,0)
GPGPU-Sim uArch: core:  7, cta: 2 initialized @(3,0)
GPGPU-Sim uArch: core:  8, cta: 2 initialized @(3,0)
GPGPU-Sim uArch: core:  9, cta: 2 initialized @(3,0)
GPGPU-Sim uArch: core: 10, cta: 2 initialized @(3,0)
GPGPU-Sim uArch: core: 11, cta: 2 initialized @(3,0)
GPGPU-Sim uArch: core: 12, cta: 2 initialized @(3,0)
GPGPU-Sim uArch: core: 13, cta: 2 initialized @(3,0)
GPGPU-Sim uArch: core: 14, cta: 2 initialized @(3,0)
GPGPU-Sim uArch: core:  0, cta: 2 initialized @(3,0)
GPGPU-Sim uArch: core:  1, cta: 3 initialized @(4,0)
GPGPU-Sim uArch: core:  2, cta: 3 initialized @(4,0)
GPGPU-Sim uArch: core:  3, cta: 3 initialized @(4,0)
GPGPU-Sim uArch: core:  4, cta: 3 initialized @(4,0)
GPGPU-Sim uArch: core:  5, cta: 3 initialized @(4,0)
GPGPU-Sim uArch: core:  6, cta: 3 initialized @(4,0)
GPGPU-Sim uArch: core:  7, cta: 3 initialized @(4,0)
GPGPU-Sim uArch: core:  8, cta: 3 initialized @(4,0)
GPGPU-Sim uArch: core:  9, cta: 3 initialized @(4,0)
GPGPU-Sim uArch: core: 10, cta: 3 initialized @(4,0)
GPGPU-Sim uArch: core: 11, cta: 3 initialized @(4,0)
GPGPU-Sim uArch: core: 12, cta: 3 initialized @(4,0)
GPGPU-Sim uArch: core: 13, cta: 3 initialized @(4,0)
GPGPU-Sim uArch: core: 14, cta: 3 initialized @(4,0)
GPGPU-Sim uArch: core:  0, cta: 3 initialized @(4,0)
GPGPU-Sim uArch: core:  1, cta: 4 initialized @(5,0)
GPGPU-Sim uArch: core:  2, cta: 4 initialized @(5,0)
GPGPU-Sim uArch: core:  3, cta: 4 initialized @(5,0)
GPGPU-Sim uArch: core:  4, cta: 4 initialized @(5,0)
GPGPU-Sim uArch: core:  5, cta: 4 initialized @(5,0)
GPGPU-Sim uArch: core:  6, cta: 4 initialized @(5,0)
GPGPU-Sim uArch: core:  7, cta: 4 initialized @(5,0)
GPGPU-Sim uArch: core:  8, cta: 4 initialized @(5,0)
GPGPU-Sim uArch: core:  9, cta: 4 initialized @(5,0)
GPGPU-Sim uArch: core: 10, cta: 4 initialized @(5,0)
GPGPU-Sim uArch: core: 11, cta: 4 initialized @(5,0)
GPGPU-Sim uArch: core: 12, cta: 4 initialized @(5,0)
GPGPU-Sim uArch: core: 13, cta: 4 initialized @(5,0)
GPGPU-Sim uArch: core: 14, cta: 4 initialized @(5,0)
GPGPU-Sim uArch: core:  0, cta: 4 initialized @(5,0)
GPGPU-Sim uArch: cycles simulated: 500  inst.: 36032 (ipc=72.1) sim_rate=36032 (inst/sec) elapsed = 0:0:00:01 / Tue Apr 16 16:48:46 2019
GPGPU-Sim uArch: cycles simulated: 1000  inst.: 60928 (ipc=60.9) sim_rate=30464 (inst/sec) elapsed = 0:0:00:02 / Tue Apr 16 16:48:47 2019
GPGPU-Sim uArch: cycles simulated: 2000  inst.: 84160 (ipc=42.1) sim_rate=28053 (inst/sec) elapsed = 0:0:00:03 / Tue Apr 16 16:48:48 2019
GPGPU-Sim PTX: 100000 instructions simulated : ctaid=(7,0,0) tid=(15,1,0)
GPGPU-Sim uArch: cycles simulated: 3500  inst.: 166112 (ipc=47.5) sim_rate=41528 (inst/sec) elapsed = 0:0:00:04 / Tue Apr 16 16:48:49 2019
GPGPU-Sim PTX: 200000 instructions simulated : ctaid=(7,3,0) tid=(15,5,0)
GPGPU-Sim uArch: cycles simulated: 4000  inst.: 224608 (ipc=56.2) sim_rate=44921 (inst/sec) elapsed = 0:0:00:05 / Tue Apr 16 16:48:50 2019
GPGPU-Sim PTX: 300000 instructions simulated : ctaid=(2,0,0) tid=(15,1,0)
GPGPU-Sim uArch: cycles simulated: 5500  inst.: 363424 (ipc=66.1) sim_rate=60570 (inst/sec) elapsed = 0:0:00:06 / Tue Apr 16 16:48:51 2019
GPGPU-Sim PTX: 400000 instructions simulated : ctaid=(4,0,0) tid=(15,7,0)
GPGPU-Sim uArch: cycles simulated: 6000  inst.: 486400 (ipc=81.1) sim_rate=69485 (inst/sec) elapsed = 0:0:00:07 / Tue Apr 16 16:48:52 2019
GPGPU-Sim PTX: 500000 instructions simulated : ctaid=(14,1,0) tid=(15,5,0)
GPGPU-Sim PTX: 600000 instructions simulated : ctaid=(14,3,0) tid=(15,5,0)
GPGPU-Sim PTX: 700000 instructions simulated : ctaid=(7,4,0) tid=(15,1,0)
GPGPU-Sim uArch: cycles simulated: 7500  inst.: 780736 (ipc=104.1) sim_rate=97592 (inst/sec) elapsed = 0:0:00:08 / Tue Apr 16 16:48:53 2019
GPGPU-Sim PTX: 800000 instructions simulated : ctaid=(1,0,0) tid=(15,7,0)
GPGPU-Sim PTX: 900000 instructions simulated : ctaid=(5,1,0) tid=(15,3,0)
GPGPU-Sim PTX: 1000000 instructions simulated : ctaid=(4,2,0) tid=(15,7,0)
GPGPU-Sim PTX: 1100000 instructions simulated : ctaid=(13,2,0) tid=(15,7,0)
GPGPU-Sim PTX: 1200000 instructions simulated : ctaid=(4,2,0) tid=(15,5,0)
GPGPU-Sim uArch: cycles simulated: 9000  inst.: 1272192 (ipc=141.4) sim_rate=141354 (inst/sec) elapsed = 0:0:00:09 / Tue Apr 16 16:48:54 2019
GPGPU-Sim PTX: 1300000 instructions simulated : ctaid=(14,3,0) tid=(15,3,0)
GPGPU-Sim PTX: 1400000 instructions simulated : ctaid=(6,0,0) tid=(15,7,0)
GPGPU-Sim PTX: 1500000 instructions simulated : ctaid=(7,3,0) tid=(15,1,0)
GPGPU-Sim PTX: 1600000 instructions simulated : ctaid=(13,3,0) tid=(15,1,0)
GPGPU-Sim PTX: 1700000 instructions simulated : ctaid=(0,1,0) tid=(15,3,0)
GPGPU-Sim PTX: 1800000 instructions simulated : ctaid=(13,1,0) tid=(15,1,0)
GPGPU-Sim uArch: cycles simulated: 10000  inst.: 1799520 (ipc=180.0) sim_rate=179952 (inst/sec) elapsed = 0:0:00:10 / Tue Apr 16 16:48:55 2019
GPGPU-Sim PTX: 1900000 instructions simulated : ctaid=(8,2,0) tid=(15,5,0)
GPGPU-Sim PTX: 2000000 instructions simulated : ctaid=(12,0,0) tid=(15,7,0)
GPGPU-Sim PTX: 2100000 instructions simulated : ctaid=(8,1,0) tid=(15,5,0)
GPGPU-Sim PTX: 2200000 instructions simulated : ctaid=(3,2,0) tid=(15,5,0)
GPGPU-Sim uArch: cycles simulated: 10500  inst.: 2199360 (ipc=209.5) sim_rate=199941 (inst/sec) elapsed = 0:0:00:11 / Tue Apr 16 16:48:56 2019
GPGPU-Sim PTX: 2300000 instructions simulated : ctaid=(0,1,0) tid=(15,5,0)
GPGPU-Sim PTX: 2400000 instructions simulated : ctaid=(1,4,0) tid=(15,5,0)
GPGPU-Sim PTX: 2500000 instructions simulated : ctaid=(4,3,0) tid=(15,3,0)
GPGPU-Sim uArch: cycles simulated: 11000  inst.: 2521728 (ipc=229.2) sim_rate=210144 (inst/sec) elapsed = 0:0:00:12 / Tue Apr 16 16:48:57 2019
GPGPU-Sim PTX: 2600000 instructions simulated : ctaid=(5,3,0) tid=(15,5,0)
GPGPU-Sim PTX: 2700000 instructions simulated : ctaid=(11,0,0) tid=(15,1,0)
GPGPU-Sim PTX: 2800000 instructions simulated : ctaid=(10,0,0) tid=(15,7,0)
GPGPU-Sim PTX: 2900000 instructions simulated : ctaid=(13,2,0) tid=(15,3,0)
GPGPU-Sim uArch: cycles simulated: 11500  inst.: 2899488 (ipc=252.1) sim_rate=223037 (inst/sec) elapsed = 0:0:00:13 / Tue Apr 16 16:48:58 2019
GPGPU-Sim PTX: 3000000 instructions simulated : ctaid=(6,1,0) tid=(15,5,0)
GPGPU-Sim PTX: 3100000 instructions simulated : ctaid=(3,4,0) tid=(15,1,0)
GPGPU-Sim PTX: 3200000 instructions simulated : ctaid=(5,1,0) tid=(15,3,0)
GPGPU-Sim PTX: 3300000 instructions simulated : ctaid=(11,3,0) tid=(15,7,0)
GPGPU-Sim PTX: 3400000 instructions simulated : ctaid=(0,4,0) tid=(15,7,0)
GPGPU-Sim PTX: 3500000 instructions simulated : ctaid=(11,0,0) tid=(15,3,0)
GPGPU-Sim PTX: 3600000 instructions simulated : ctaid=(14,0,0) tid=(15,3,0)
GPGPU-Sim uArch: cycles simulated: 13000  inst.: 3551040 (ipc=273.2) sim_rate=253645 (inst/sec) elapsed = 0:0:00:14 / Tue Apr 16 16:48:59 2019
GPGPU-Sim PTX: 3700000 instructions simulated : ctaid=(10,3,0) tid=(15,5,0)
GPGPU-Sim uArch: cycles simulated: 13500  inst.: 3667936 (ipc=271.7) sim_rate=244529 (inst/sec) elapsed = 0:0:00:15 / Tue Apr 16 16:49:00 2019
GPGPU-Sim PTX: 3800000 instructions simulated : ctaid=(2,0,0) tid=(15,7,0)
GPGPU-Sim PTX: 3900000 instructions simulated : ctaid=(4,2,0) tid=(15,1,0)
GPGPU-Sim PTX: 4000000 instructions simulated : ctaid=(7,4,0) tid=(15,3,0)
GPGPU-Sim PTX: 4100000 instructions simulated : ctaid=(3,2,0) tid=(15,3,0)
GPGPU-Sim PTX: 4200000 instructions simulated : ctaid=(1,4,0) tid=(15,5,0)
GPGPU-Sim uArch: cycles simulated: 15000  inst.: 4111776 (ipc=274.1) sim_rate=256986 (inst/sec) elapsed = 0:0:00:16 / Tue Apr 16 16:49:01 2019
GPGPU-Sim PTX: 4300000 instructions simulated : ctaid=(11,2,0) tid=(15,7,0)
GPGPU-Sim PTX: 4400000 instructions simulated : ctaid=(1,4,0) tid=(15,1,0)
GPGPU-Sim PTX: 4500000 instructions simulated : ctaid=(8,3,0) tid=(15,3,0)
GPGPU-Sim PTX: 4600000 instructions simulated : ctaid=(3,2,0) tid=(12,0,0)
GPGPU-Sim PTX: 4700000 instructions simulated : ctaid=(8,0,0) tid=(6,2,0)
GPGPU-Sim uArch: cycles simulated: 16000  inst.: 4590336 (ipc=286.9) sim_rate=270019 (inst/sec) elapsed = 0:0:00:17 / Tue Apr 16 16:49:02 2019
GPGPU-Sim PTX: 4800000 instructions simulated : ctaid=(7,0,0) tid=(15,2,0)
GPGPU-Sim PTX: 4900000 instructions simulated : ctaid=(8,2,0) tid=(15,2,0)
GPGPU-Sim PTX: 5000000 instructions simulated : ctaid=(1,0,0) tid=(15,0,0)
GPGPU-Sim PTX: 5100000 instructions simulated : ctaid=(6,3,0) tid=(15,2,0)
GPGPU-Sim PTX: 5200000 instructions simulated : ctaid=(2,0,0) tid=(15,4,0)
GPGPU-Sim PTX: 5300000 instructions simulated : ctaid=(6,3,0) tid=(15,0,0)
GPGPU-Sim PTX: 5400000 instructions simulated : ctaid=(8,2,0) tid=(8,2,0)
GPGPU-Sim PTX: 5500000 instructions simulated : ctaid=(3,3,0) tid=(9,0,0)
GPGPU-Sim uArch: cycles simulated: 17000  inst.: 5380171 (ipc=316.5) sim_rate=298898 (inst/sec) elapsed = 0:0:00:18 / Tue Apr 16 16:49:03 2019
GPGPU-Sim PTX: 5600000 instructions simulated : ctaid=(0,4,0) tid=(3,1,0)
GPGPU-Sim PTX: 5700000 instructions simulated : ctaid=(8,0,0) tid=(5,7,0)
GPGPU-Sim PTX: 5800000 instructions simulated : ctaid=(2,3,0) tid=(4,3,0)
GPGPU-Sim uArch: cycles simulated: 17500  inst.: 5708264 (ipc=326.2) sim_rate=300434 (inst/sec) elapsed = 0:0:00:19 / Tue Apr 16 16:49:04 2019
GPGPU-Sim PTX: 5900000 instructions simulated : ctaid=(12,1,0) tid=(7,5,0)
GPGPU-Sim PTX: 6000000 instructions simulated : ctaid=(14,3,0) tid=(15,6,0)
GPGPU-Sim PTX: 6100000 instructions simulated : ctaid=(10,4,0) tid=(11,1,0)
GPGPU-Sim PTX: 6200000 instructions simulated : ctaid=(2,1,0) tid=(11,3,0)
GPGPU-Sim uArch: cycles simulated: 18500  inst.: 6114308 (ipc=330.5) sim_rate=305715 (inst/sec) elapsed = 0:0:00:20 / Tue Apr 16 16:49:05 2019
GPGPU-Sim PTX: 6300000 instructions simulated : ctaid=(11,2,0) tid=(11,1,0)
GPGPU-Sim PTX: 6400000 instructions simulated : ctaid=(8,2,0) tid=(11,1,0)
GPGPU-Sim PTX: 6500000 instructions simulated : ctaid=(14,2,0) tid=(6,2,0)
GPGPU-Sim uArch: cycles simulated: 20000  inst.: 6354756 (ipc=317.7) sim_rate=302607 (inst/sec) elapsed = 0:0:00:21 / Tue Apr 16 16:49:06 2019
GPGPU-Sim PTX: 6600000 instructions simulated : ctaid=(1,4,0) tid=(11,3,0)
GPGPU-Sim PTX: 6700000 instructions simulated : ctaid=(11,3,0) tid=(11,5,0)
GPGPU-Sim PTX: 6800000 instructions simulated : ctaid=(3,0,0) tid=(11,1,0)
GPGPU-Sim PTX: 6900000 instructions simulated : ctaid=(14,0,0) tid=(11,3,0)
GPGPU-Sim uArch: cycles simulated: 21000  inst.: 6796644 (ipc=323.6) sim_rate=308938 (inst/sec) elapsed = 0:0:00:22 / Tue Apr 16 16:49:07 2019
GPGPU-Sim PTX: 7000000 instructions simulated : ctaid=(7,4,0) tid=(11,1,0)
GPGPU-Sim PTX: 7100000 instructions simulated : ctaid=(13,1,0) tid=(11,7,0)
GPGPU-Sim uArch: cycles simulated: 21500  inst.: 6964260 (ipc=323.9) sim_rate=302793 (inst/sec) elapsed = 0:0:00:23 / Tue Apr 16 16:49:08 2019
GPGPU-Sim PTX: 7200000 instructions simulated : ctaid=(9,2,0) tid=(11,5,0)
GPGPU-Sim PTX: 7300000 instructions simulated : ctaid=(4,2,0) tid=(11,5,0)
GPGPU-Sim PTX: 7400000 instructions simulated : ctaid=(4,2,0) tid=(11,3,0)
GPGPU-Sim PTX: 7500000 instructions simulated : ctaid=(0,2,0) tid=(11,3,0)
GPGPU-Sim PTX: 7600000 instructions simulated : ctaid=(9,0,0) tid=(11,1,0)
GPGPU-Sim uArch: cycles simulated: 23000  inst.: 7467972 (ipc=324.7) sim_rate=311165 (inst/sec) elapsed = 0:0:00:24 / Tue Apr 16 16:49:09 2019
GPGPU-Sim PTX: 7700000 instructions simulated : ctaid=(10,3,0) tid=(11,5,0)
GPGPU-Sim PTX: 7800000 instructions simulated : ctaid=(9,3,0) tid=(11,3,0)
GPGPU-Sim PTX: 7900000 instructions simulated : ctaid=(13,1,0) tid=(11,3,0)
GPGPU-Sim PTX: 8000000 instructions simulated : ctaid=(12,0,0) tid=(11,3,0)
GPGPU-Sim uArch: cycles simulated: 24000  inst.: 7829156 (ipc=326.2) sim_rate=313166 (inst/sec) elapsed = 0:0:00:25 / Tue Apr 16 16:49:10 2019
GPGPU-Sim PTX: 8100000 instructions simulated : ctaid=(0,1,0) tid=(11,3,0)
GPGPU-Sim PTX: 8200000 instructions simulated : ctaid=(1,0,0) tid=(11,5,0)
GPGPU-Sim PTX: 8300000 instructions simulated : ctaid=(11,3,0) tid=(11,5,0)
GPGPU-Sim PTX: 8400000 instructions simulated : ctaid=(8,3,0) tid=(11,1,0)
GPGPU-Sim PTX: 8500000 instructions simulated : ctaid=(6,3,0) tid=(11,1,0)
GPGPU-Sim PTX: 8600000 instructions simulated : ctaid=(11,1,0) tid=(11,5,0)
GPGPU-Sim PTX: 8700000 instructions simulated : ctaid=(2,0,0) tid=(15,4,0)
GPGPU-Sim PTX: 8800000 instructions simulated : ctaid=(5,1,0) tid=(13,6,0)
GPGPU-Sim PTX: 8900000 instructions simulated : ctaid=(15,1,0) tid=(11,1,0)
GPGPU-Sim uArch: cycles simulated: 25500  inst.: 8683556 (ipc=340.5) sim_rate=333982 (inst/sec) elapsed = 0:0:00:26 / Tue Apr 16 16:49:11 2019
GPGPU-Sim PTX: 9000000 instructions simulated : ctaid=(5,0,0) tid=(0,7,0)
GPGPU-Sim PTX: 9100000 instructions simulated : ctaid=(14,3,0) tid=(14,0,0)
GPGPU-Sim PTX: 9200000 instructions simulated : ctaid=(12,1,0) tid=(5,2,0)
GPGPU-Sim PTX: 9300000 instructions simulated : ctaid=(1,2,0) tid=(7,7,0)
GPGPU-Sim uArch: cycles simulated: 26000  inst.: 9084847 (ipc=349.4) sim_rate=336475 (inst/sec) elapsed = 0:0:00:27 / Tue Apr 16 16:49:12 2019
GPGPU-Sim PTX: 9400000 instructions simulated : ctaid=(6,0,0) tid=(9,5,0)
GPGPU-Sim PTX: 9500000 instructions simulated : ctaid=(10,4,0) tid=(10,4,0)
GPGPU-Sim PTX: 9600000 instructions simulated : ctaid=(0,4,0) tid=(10,0,0)
GPGPU-Sim PTX: 9700000 instructions simulated : ctaid=(6,0,0) tid=(8,0,0)
GPGPU-Sim uArch: cycles simulated: 26500  inst.: 9481321 (ipc=357.8) sim_rate=338618 (inst/sec) elapsed = 0:0:00:28 / Tue Apr 16 16:49:13 2019
GPGPU-Sim PTX: 9800000 instructions simulated : ctaid=(5,0,0) tid=(5,2,0)
GPGPU-Sim PTX: 9900000 instructions simulated : ctaid=(0,3,0) tid=(15,7,0)
GPGPU-Sim PTX: 10000000 instructions simulated : ctaid=(4,4,0) tid=(4,2,0)
GPGPU-Sim uArch: cycles simulated: 27000  inst.: 9748445 (ipc=361.1) sim_rate=336153 (inst/sec) elapsed = 0:0:00:29 / Tue Apr 16 16:49:14 2019
GPGPU-Sim PTX: 10100000 instructions simulated : ctaid=(2,1,0) tid=(6,0,0)
GPGPU-Sim PTX: 10200000 instructions simulated : ctaid=(4,3,0) tid=(10,1,0)
GPGPU-Sim uArch: cycles simulated: 28000  inst.: 9978173 (ipc=356.4) sim_rate=332605 (inst/sec) elapsed = 0:0:00:30 / Tue Apr 16 16:49:15 2019
GPGPU-Sim PTX: 10300000 instructions simulated : ctaid=(1,4,0) tid=(1,3,0)
GPGPU-Sim PTX: 10400000 instructions simulated : ctaid=(4,1,0) tid=(1,2,0)
GPGPU-Sim uArch: Shader 14 finished CTA #0 (28556,0), 4 CTAs running
GPGPU-Sim uArch: core: 14, cta: 0 initialized @(28557,0)
GPGPU-Sim uArch: Shader 10 finished CTA #4 (28594,0), 4 CTAs running
GPGPU-Sim uArch: core: 10, cta: 4 initialized @(28595,0)
GPGPU-Sim uArch: Shader 9 finished CTA #3 (28640,0), 4 CTAs running
GPGPU-Sim uArch: core:  9, cta: 3 initialized @(28641,0)
GPGPU-Sim uArch: Shader 9 finished CTA #4 (28669,0), 4 CTAs running
GPGPU-Sim uArch: core:  9, cta: 4 initialized @(28670,0)
GPGPU-Sim uArch: Shader 6 finished CTA #2 (28684,0), 4 CTAs running
GPGPU-Sim uArch: core:  6, cta: 2 initialized @(28685,0)
GPGPU-Sim uArch: Shader 1 finished CTA #0 (28686,0), 4 CTAs running
GPGPU-Sim uArch: core:  1, cta: 0 initialized @(28687,0)
GPGPU-Sim uArch: Shader 8 finished CTA #2 (28688,0), 4 CTAs running
GPGPU-Sim uArch: core:  8, cta: 2 initialized @(28689,0)
GPGPU-Sim PTX: 10500000 instructions simulated : ctaid=(5,0,0) tid=(14,4,0)
GPGPU-Sim uArch: Shader 1 finished CTA #2 (28764,0), 4 CTAs running
GPGPU-Sim uArch: core:  1, cta: 2 initialized @(28765,0)
GPGPU-Sim uArch: Shader 1 finished CTA #1 (28772,0), 4 CTAs running
GPGPU-Sim uArch: core:  1, cta: 1 initialized @(28773,0)
GPGPU-Sim uArch: Shader 0 finished CTA #0 (28797,0), 4 CTAs running
GPGPU-Sim uArch: core:  0, cta: 0 initialized @(28798,0)
GPGPU-Sim uArch: Shader 1 finished CTA #3 (28822,0), 4 CTAs running
GPGPU-Sim uArch: core:  1, cta: 3 initialized @(28823,0)
GPGPU-Sim uArch: Shader 4 finished CTA #1 (28832,0), 4 CTAs running
GPGPU-Sim uArch: core:  4, cta: 1 initialized @(28833,0)
GPGPU-Sim uArch: Shader 6 finished CTA #3 (28837,0), 4 CTAs running
GPGPU-Sim uArch: core:  6, cta: 3 initialized @(28838,0)
GPGPU-Sim uArch: Shader 5 finished CTA #2 (28844,0), 4 CTAs running
GPGPU-Sim uArch: core:  5, cta: 2 initialized @(28845,0)
GPGPU-Sim uArch: Shader 6 finished CTA #4 (28849,0), 4 CTAs running
GPGPU-Sim uArch: core:  6, cta: 4 initialized @(28850,0)
GPGPU-Sim uArch: Shader 4 finished CTA #2 (28860,0), 4 CTAs running
GPGPU-Sim uArch: core:  4, cta: 2 initialized @(28861,0)
GPGPU-Sim uArch: Shader 4 finished CTA #3 (28872,0), 4 CTAs running
GPGPU-Sim uArch: core:  4, cta: 3 initialized @(28873,0)
GPGPU-Sim uArch: Shader 4 finished CTA #4 (28906,0), 4 CTAs running
GPGPU-Sim uArch: core:  4, cta: 4 initialized @(28907,0)
GPGPU-Sim uArch: Shader 0 finished CTA #1 (28910,0), 4 CTAs running
GPGPU-Sim uArch: core:  0, cta: 1 initialized @(28911,0)
GPGPU-Sim uArch: Shader 1 finished CTA #4 (28923,0), 4 CTAs running
GPGPU-Sim uArch: core:  1, cta: 4 initialized @(28924,0)
GPGPU-Sim uArch: Shader 7 finished CTA #3 (28932,0), 4 CTAs running
GPGPU-Sim uArch: core:  7, cta: 3 initialized @(28933,0)
GPGPU-Sim uArch: Shader 0 finished CTA #2 (28934,0), 4 CTAs running
GPGPU-Sim uArch: core:  0, cta: 2 initialized @(28935,0)
GPGPU-Sim uArch: Shader 7 finished CTA #4 (28945,0), 4 CTAs running
GPGPU-Sim uArch: Shader 8 finished CTA #3 (28945,0), 4 CTAs running
GPGPU-Sim uArch: core:  7, cta: 4 initialized @(28946,0)
GPGPU-Sim uArch: core:  8, cta: 3 initialized @(28946,0)
GPGPU-Sim uArch: Shader 2 finished CTA #1 (28952,0), 4 CTAs running
GPGPU-Sim uArch: core:  2, cta: 1 initialized @(28953,0)
GPGPU-Sim uArch: Shader 8 finished CTA #4 (28962,0), 4 CTAs running
GPGPU-Sim uArch: core:  8, cta: 4 initialized @(28963,0)
GPGPU-Sim uArch: Shader 2 finished CTA #0 (28976,0), 4 CTAs running
GPGPU-Sim uArch: core:  2, cta: 0 initialized @(28977,0)
GPGPU-Sim uArch: Shader 5 finished CTA #3 (28989,0), 4 CTAs running
GPGPU-Sim uArch: core:  5, cta: 3 initialized @(28990,0)
GPGPU-Sim uArch: Shader 2 finished CTA #2 (28992,0), 4 CTAs running
GPGPU-Sim uArch: core:  2, cta: 2 initialized @(28993,0)
GPGPU-Sim uArch: cycles simulated: 29000  inst.: 10309433 (ipc=355.5) sim_rate=332562 (inst/sec) elapsed = 0:0:00:31 / Tue Apr 16 16:49:16 2019
GPGPU-Sim uArch: Shader 2 finished CTA #3 (29000,0), 4 CTAs running
GPGPU-Sim uArch: core:  2, cta: 3 initialized @(29001,0)
GPGPU-Sim uArch: Shader 3 finished CTA #0 (29022,0), 4 CTAs running
GPGPU-Sim uArch: core:  3, cta: 0 initialized @(29023,0)
GPGPU-Sim uArch: Shader 2 finished CTA #4 (29031,0), 4 CTAs running
GPGPU-Sim uArch: core:  2, cta: 4 initialized @(29032,0)
GPGPU-Sim PTX: 10600000 instructions simulated : ctaid=(8,3,0) tid=(5,2,0)
GPGPU-Sim uArch: Shader 0 finished CTA #3 (29083,0), 4 CTAs running
GPGPU-Sim uArch: core:  0, cta: 3 initialized @(29084,0)
GPGPU-Sim uArch: Shader 0 finished CTA #4 (29177,0), 4 CTAs running
GPGPU-Sim uArch: core:  0, cta: 4 initialized @(29178,0)
GPGPU-Sim uArch: Shader 3 finished CTA #4 (29203,0), 4 CTAs running
GPGPU-Sim uArch: core:  3, cta: 4 initialized @(29204,0)
GPGPU-Sim uArch: Shader 3 finished CTA #2 (29237,0), 4 CTAs running
GPGPU-Sim uArch: core:  3, cta: 2 initialized @(29238,0)
GPGPU-Sim uArch: Shader 3 finished CTA #3 (29242,0), 4 CTAs running
GPGPU-Sim uArch: core:  3, cta: 3 initialized @(29243,0)
GPGPU-Sim uArch: Shader 3 finished CTA #1 (29247,0), 4 CTAs running
GPGPU-Sim uArch: core:  3, cta: 1 initialized @(29248,0)
GPGPU-Sim uArch: Shader 5 finished CTA #4 (29268,0), 4 CTAs running
GPGPU-Sim uArch: core:  5, cta: 4 initialized @(29269,0)
GPGPU-Sim PTX: 10700000 instructions simulated : ctaid=(12,4,0) tid=(5,2,0)
GPGPU-Sim uArch: cycles simulated: 29500  inst.: 10472249 (ipc=355.0) sim_rate=327257 (inst/sec) elapsed = 0:0:00:32 / Tue Apr 16 16:49:17 2019
GPGPU-Sim PTX: 10800000 instructions simulated : ctaid=(8,2,0) tid=(4,1,0)
GPGPU-Sim PTX: 10900000 instructions simulated : ctaid=(9,2,0) tid=(12,3,0)
GPGPU-Sim uArch: cycles simulated: 30000  inst.: 10631192 (ipc=354.4) sim_rate=322157 (inst/sec) elapsed = 0:0:00:33 / Tue Apr 16 16:49:18 2019
GPGPU-Sim PTX: 11000000 instructions simulated : ctaid=(9,1,0) tid=(8,4,0)
GPGPU-Sim PTX: 11100000 instructions simulated : ctaid=(15,5,0) tid=(8,7,0)
GPGPU-Sim PTX: 11200000 instructions simulated : ctaid=(7,5,0) tid=(9,4,0)
GPGPU-Sim PTX: 11300000 instructions simulated : ctaid=(2,5,0) tid=(11,4,0)
GPGPU-Sim uArch: cycles simulated: 31000  inst.: 11043707 (ipc=356.2) sim_rate=324814 (inst/sec) elapsed = 0:0:00:34 / Tue Apr 16 16:49:19 2019
GPGPU-Sim PTX: 11400000 instructions simulated : ctaid=(8,0,0) tid=(2,5,0)
GPGPU-Sim PTX: 11500000 instructions simulated : ctaid=(10,5,0) tid=(7,1,0)
GPGPU-Sim PTX: 11600000 instructions simulated : ctaid=(9,3,0) tid=(4,6,0)
GPGPU-Sim uArch: cycles simulated: 31500  inst.: 11303159 (ipc=358.8) sim_rate=322947 (inst/sec) elapsed = 0:0:00:35 / Tue Apr 16 16:49:20 2019
GPGPU-Sim PTX: 11700000 instructions simulated : ctaid=(1,5,0) tid=(10,5,0)
GPGPU-Sim PTX: 11800000 instructions simulated : ctaid=(9,3,0) tid=(5,7,0)
GPGPU-Sim uArch: cycles simulated: 32000  inst.: 11552630 (ipc=361.0) sim_rate=320906 (inst/sec) elapsed = 0:0:00:36 / Tue Apr 16 16:49:21 2019
GPGPU-Sim uArch: Shader 7 finished CTA #2 (32022,0), 4 CTAs running
GPGPU-Sim uArch: core:  7, cta: 2 initialized @(32023,0)
GPGPU-Sim PTX: 11900000 instructions simulated : ctaid=(14,5,0) tid=(0,6,0)
GPGPU-Sim PTX: 12000000 instructions simulated : ctaid=(3,5,0) tid=(4,2,0)
GPGPU-Sim PTX: 12100000 instructions simulated : ctaid=(9,5,0) tid=(7,4,0)
GPGPU-Sim PTX: 12200000 instructions simulated : ctaid=(5,6,0) tid=(3,3,0)
GPGPU-Sim PTX: 12300000 instructions simulated : ctaid=(8,6,0) tid=(14,6,0)
GPGPU-Sim PTX: 12400000 instructions simulated : ctaid=(13,6,0) tid=(6,3,0)
GPGPU-Sim uArch: cycles simulated: 33000  inst.: 12137801 (ipc=367.8) sim_rate=328048 (inst/sec) elapsed = 0:0:00:37 / Tue Apr 16 16:49:22 2019
GPGPU-Sim PTX: 12500000 instructions simulated : ctaid=(10,6,0) tid=(2,7,0)
GPGPU-Sim uArch: Shader 14 finished CTA #2 (33150,0), 4 CTAs running
GPGPU-Sim uArch: core: 14, cta: 2 initialized @(33151,0)
GPGPU-Sim PTX: 12600000 instructions simulated : ctaid=(15,5,0) tid=(8,6,0)
GPGPU-Sim PTX: 12700000 instructions simulated : ctaid=(1,5,0) tid=(4,2,0)
GPGPU-Sim uArch: cycles simulated: 33500  inst.: 12426973 (ipc=371.0) sim_rate=327025 (inst/sec) elapsed = 0:0:00:38 / Tue Apr 16 16:49:23 2019
GPGPU-Sim PTX: 12800000 instructions simulated : ctaid=(6,6,0) tid=(8,7,0)
GPGPU-Sim PTX: 12900000 instructions simulated : ctaid=(15,6,0) tid=(6,1,0)
GPGPU-Sim PTX: 13000000 instructions simulated : ctaid=(12,4,0) tid=(2,2,0)
GPGPU-Sim PTX: 13100000 instructions simulated : ctaid=(15,6,0) tid=(12,1,0)
GPGPU-Sim PTX: 13200000 instructions simulated : ctaid=(11,1,0) tid=(14,2,0)
GPGPU-Sim PTX: 13300000 instructions simulated : ctaid=(14,5,0) tid=(1,3,0)
GPGPU-Sim uArch: cycles simulated: 34500  inst.: 12968428 (ipc=375.9) sim_rate=332523 (inst/sec) elapsed = 0:0:00:39 / Tue Apr 16 16:49:24 2019
GPGPU-Sim PTX: 13400000 instructions simulated : ctaid=(8,5,0) tid=(7,6,0)
GPGPU-Sim PTX: 13500000 instructions simulated : ctaid=(12,4,0) tid=(8,7,0)
GPGPU-Sim PTX: 13600000 instructions simulated : ctaid=(6,0,0) tid=(0,3,0)
GPGPU-Sim PTX: 13700000 instructions simulated : ctaid=(1,7,0) tid=(0,2,0)
GPGPU-Sim PTX: 13800000 instructions simulated : ctaid=(5,0,0) tid=(4,6,0)
GPGPU-Sim PTX: 13900000 instructions simulated : ctaid=(3,0,0) tid=(12,6,0)
GPGPU-Sim uArch: cycles simulated: 35500  inst.: 13528287 (ipc=381.1) sim_rate=338207 (inst/sec) elapsed = 0:0:00:40 / Tue Apr 16 16:49:25 2019
GPGPU-Sim PTX: 14000000 instructions simulated : ctaid=(13,6,0) tid=(4,0,0)
GPGPU-Sim PTX: 14100000 instructions simulated : ctaid=(14,6,0) tid=(14,2,0)
GPGPU-Sim uArch: cycles simulated: 36000  inst.: 13777750 (ipc=382.7) sim_rate=336042 (inst/sec) elapsed = 0:0:00:41 / Tue Apr 16 16:49:26 2019
GPGPU-Sim PTX: 14200000 instructions simulated : ctaid=(7,0,0) tid=(14,7,0)
GPGPU-Sim PTX: 14300000 instructions simulated : ctaid=(1,5,0) tid=(12,0,0)
GPGPU-Sim PTX: 14400000 instructions simulated : ctaid=(12,6,0) tid=(4,5,0)
GPGPU-Sim uArch: cycles simulated: 36500  inst.: 14049106 (ipc=384.9) sim_rate=334502 (inst/sec) elapsed = 0:0:00:42 / Tue Apr 16 16:49:27 2019
GPGPU-Sim PTX: 14500000 instructions simulated : ctaid=(6,1,0) tid=(10,0,0)
GPGPU-Sim PTX: 14600000 instructions simulated : ctaid=(8,6,0) tid=(11,0,0)
GPGPU-Sim PTX: 14700000 instructions simulated : ctaid=(8,6,0) tid=(0,5,0)
GPGPU-Sim uArch: cycles simulated: 37000  inst.: 14349163 (ipc=387.8) sim_rate=333701 (inst/sec) elapsed = 0:0:00:43 / Tue Apr 16 16:49:28 2019
GPGPU-Sim PTX: 14800000 instructions simulated : ctaid=(13,6,0) tid=(12,7,0)
GPGPU-Sim PTX: 14900000 instructions simulated : ctaid=(5,5,0) tid=(8,5,0)
GPGPU-Sim PTX: 15000000 instructions simulated : ctaid=(9,4,0) tid=(3,6,0)
GPGPU-Sim uArch: cycles simulated: 37500  inst.: 14645168 (ipc=390.5) sim_rate=332844 (inst/sec) elapsed = 0:0:00:44 / Tue Apr 16 16:49:29 2019
GPGPU-Sim PTX: 15100000 instructions simulated : ctaid=(6,0,0) tid=(6,2,0)
GPGPU-Sim PTX: 15200000 instructions simulated : ctaid=(4,5,0) tid=(8,3,0)
GPGPU-Sim PTX: 15300000 instructions simulated : ctaid=(3,6,0) tid=(6,0,0)
GPGPU-Sim uArch: cycles simulated: 38000  inst.: 14927980 (ipc=392.8) sim_rate=331732 (inst/sec) elapsed = 0:0:00:45 / Tue Apr 16 16:49:30 2019
GPGPU-Sim PTX: 15400000 instructions simulated : ctaid=(5,5,0) tid=(15,0,0)
GPGPU-Sim uArch: Shader 14 finished CTA #3 (38252,0), 4 CTAs running
GPGPU-Sim uArch: core: 14, cta: 3 initialized @(38253,0)
GPGPU-Sim PTX: 15500000 instructions simulated : ctaid=(0,6,0) tid=(0,1,0)
GPGPU-Sim uArch: cycles simulated: 38500  inst.: 15173053 (ipc=394.1) sim_rate=329848 (inst/sec) elapsed = 0:0:00:46 / Tue Apr 16 16:49:31 2019
GPGPU-Sim PTX: 15600000 instructions simulated : ctaid=(15,6,0) tid=(0,7,0)
GPGPU-Sim PTX: 15700000 instructions simulated : ctaid=(15,4,0) tid=(7,3,0)
GPGPU-Sim PTX: 15800000 instructions simulated : ctaid=(10,6,0) tid=(6,7,0)
GPGPU-Sim uArch: Shader 13 finished CTA #2 (39030,0), 4 CTAs running
GPGPU-Sim uArch: core: 13, cta: 2 initialized @(39031,0)
GPGPU-Sim PTX: 15900000 instructions simulated : ctaid=(7,2,0) tid=(9,7,0)
GPGPU-Sim PTX: 16000000 instructions simulated : ctaid=(4,0,0) tid=(15,5,0)
GPGPU-Sim PTX: 16100000 instructions simulated : ctaid=(3,5,0) tid=(7,3,0)
GPGPU-Sim PTX: 16200000 instructions simulated : ctaid=(15,5,0) tid=(6,0,0)
GPGPU-Sim uArch: cycles simulated: 40000  inst.: 15801055 (ipc=395.0) sim_rate=336192 (inst/sec) elapsed = 0:0:00:47 / Tue Apr 16 16:49:32 2019
GPGPU-Sim PTX: 16300000 instructions simulated : ctaid=(6,3,0) tid=(15,5,0)
GPGPU-Sim PTX: 16400000 instructions simulated : ctaid=(3,7,0) tid=(12,7,0)
GPGPU-Sim uArch: cycles simulated: 40500  inst.: 16047080 (ipc=396.2) sim_rate=334314 (inst/sec) elapsed = 0:0:00:48 / Tue Apr 16 16:49:33 2019
GPGPU-Sim PTX: 16500000 instructions simulated : ctaid=(7,1,0) tid=(11,4,0)
GPGPU-Sim PTX: 16600000 instructions simulated : ctaid=(13,4,0) tid=(5,0,0)
GPGPU-Sim PTX: 16700000 instructions simulated : ctaid=(11,4,0) tid=(7,2,0)
GPGPU-Sim uArch: cycles simulated: 41000  inst.: 16285181 (ipc=397.2) sim_rate=332350 (inst/sec) elapsed = 0:0:00:49 / Tue Apr 16 16:49:34 2019
GPGPU-Sim PTX: 16800000 instructions simulated : ctaid=(11,6,0) tid=(5,4,0)
GPGPU-Sim PTX: 16900000 instructions simulated : ctaid=(12,6,0) tid=(2,5,0)
GPGPU-Sim uArch: cycles simulated: 41500  inst.: 16512311 (ipc=397.9) sim_rate=330246 (inst/sec) elapsed = 0:0:00:50 / Tue Apr 16 16:49:35 2019
GPGPU-Sim PTX: 17000000 instructions simulated : ctaid=(9,2,0) tid=(6,4,0)
GPGPU-Sim PTX: 17100000 instructions simulated : ctaid=(9,0,0) tid=(5,6,0)
GPGPU-Sim uArch: Shader 5 finished CTA #1 (41763,0), 4 CTAs running
GPGPU-Sim uArch: core:  5, cta: 1 initialized @(41764,0)
GPGPU-Sim PTX: 17200000 instructions simulated : ctaid=(7,5,0) tid=(15,3,0)
GPGPU-Sim PTX: 17300000 instructions simulated : ctaid=(5,5,0) tid=(0,6,0)
GPGPU-Sim PTX: 17400000 instructions simulated : ctaid=(12,1,0) tid=(3,0,0)
GPGPU-Sim uArch: cycles simulated: 42500  inst.: 17004455 (ipc=400.1) sim_rate=333420 (inst/sec) elapsed = 0:0:00:51 / Tue Apr 16 16:49:36 2019
GPGPU-Sim PTX: 17500000 instructions simulated : ctaid=(6,6,0) tid=(3,1,0)
GPGPU-Sim PTX: 17600000 instructions simulated : ctaid=(8,2,0) tid=(2,1,0)
GPGPU-Sim PTX: 17700000 instructions simulated : ctaid=(8,2,0) tid=(8,2,0)
GPGPU-Sim PTX: 17800000 instructions simulated : ctaid=(8,0,0) tid=(12,5,0)
GPGPU-Sim PTX: 17900000 instructions simulated : ctaid=(14,5,0) tid=(3,1,0)
GPGPU-Sim uArch: cycles simulated: 43500  inst.: 17425865 (ipc=400.6) sim_rate=335112 (inst/sec) elapsed = 0:0:00:52 / Tue Apr 16 16:49:37 2019
GPGPU-Sim uArch: Shader 14 finished CTA #1 (43605,0), 4 CTAs running
GPGPU-Sim uArch: core: 14, cta: 1 initialized @(43606,0)
GPGPU-Sim PTX: 18000000 instructions simulated : ctaid=(14,6,0) tid=(15,3,0)
GPGPU-Sim PTX: 18100000 instructions simulated : ctaid=(4,5,0) tid=(7,6,0)
GPGPU-Sim uArch: Shader 14 finished CTA #0 (44026,0), 4 CTAs running
GPGPU-Sim uArch: core: 14, cta: 0 initialized @(44027,0)
GPGPU-Sim PTX: 18200000 instructions simulated : ctaid=(4,6,0) tid=(11,7,0)
GPGPU-Sim uArch: Shader 9 finished CTA #3 (44086,0), 4 CTAs running
GPGPU-Sim uArch: core:  9, cta: 3 initialized @(44087,0)
GPGPU-Sim PTX: 18300000 instructions simulated : ctaid=(9,5,0) tid=(5,1,0)
GPGPU-Sim uArch: Shader 4 finished CTA #0 (44300,0), 4 CTAs running
GPGPU-Sim uArch: core:  4, cta: 0 initialized @(44301,0)
GPGPU-Sim PTX: 18400000 instructions simulated : ctaid=(15,5,0) tid=(15,5,0)
GPGPU-Sim uArch: Shader 12 finished CTA #3 (44490,0), 4 CTAs running
GPGPU-Sim uArch: core: 12, cta: 3 initialized @(44491,0)
[...]
traffic_breakdown_memtocore[LOCAL_ACC_W] = 422352 {8:52794,}
maxmrqlatency = 628 
maxdqlatency = 0 
maxmflatency = 1999 
averagemflatency = 253 
max_icnt2mem_latency = 1092 
max_icnt2sh_latency = 145343 
mrq_lat_table:16928 	2014 	1403 	2350 	6348 	4412 	3702 	2135 	281 	10 	0 	0 	0 	0 	0 	0 	0 	0 	0 	0 	0 	0 	0 	0 	0 	0 	0 	0 	0 	0 	0 	0 	
dq_lat_table:0 	0 	0 	0 	0 	0 	0 	0 	0 	0 	0 	0 	0 	0 	0 	0 	0 	0 	0 	0 	0 	0 	0 	0 	0 	0 	0 	0 	0 	0 	0 	0 	
mf_lat_table:0 	0 	0 	0 	0 	0 	0 	59420 	11679 	4754 	851 	0 	0 	0 	0 	0 	0 	0 	0 	0 	0 	0 	0 	0 	0 	0 	0 	0 	0 	0 	0 	0 	
icnt2mem_lat_table:0 	0 	0 	22497 	16497 	17123 	34865 	2146 	2256 	509 	4 	0 	0 	0 	0 	0 	0 	0 	0 	0 	0 	0 	0 	0 	
icnt2sh_lat_table:0 	0 	0 	8541 	5875 	1212 	90 	0 	0 	186 	498 	1378 	3108 	2630 	6247 	12398 	26572 	7969 	0 	0 	0 	0 	0 	0 	
mf_lat_pw_table:0 	0 	0 	0 	0 	0 	0 	242 	6 	17 	2 	0 	0 	0 	0 	0 	0 	0 	0 	0 	0 	0 	0 	0 	0 	0 	0 	0 	0 	0 	0 	0 	
maximum concurrent accesses to same row:
dram[0]:        54        56        36        34        26        22        28        22        26        20        14        14        16        14        20        25 
dram[1]:        52        54        34        32        20        22        23        38        31        18        10        14        20        19        16        21 
dram[2]:        62        62        54        56        30        30        26        38        28        26        20        20        25        18        25        22 
dram[3]:        58        60        54        56        28        30        36        22        30        22        14        32        18        17        16        27 
dram[4]:        62        64        56        52        30        32        38        23        25        22        18        18        16        16        20        20 
dram[5]:        58        60        56        48        28        34        22        39        22        29        17        15        12        14        18        22 
maximum service time to same row:
dram[0]:     26873     12206     16743     16751     16311     16450     25269     17045     18217     19466     22130     20082     22250     40065     20996     20028 
dram[1]:     24209     10038     17581     17649     14822     16356     23503     17934     17979     18116     36088     44239     45857     40120     19782     24416 
dram[2]:     24363     17350     16767     28732     16367     17626     18127     20057     18578     18915     20123     20044     23608     29315     20013     39127 
dram[3]:     12599     16181     34377     17985     20809     16879     17965     16693     20238     19856     38324     19446     35365     37672     21979     19592 
dram[4]:     11191     15724     16888     28475     16694     17163     18197     17711     18624     18287     20218     20097     24149     22606     22307     19900 
dram[5]:     12077     15376     16982     30525     16791     17503     17055     16967     18213     18131     17963     29153     23874     29113     19762     19547 
average row accesses per activate:
dram[0]:  5.657143  5.000000  6.061224  4.970149  3.593496  3.223077  4.291667  3.458647  3.487013  2.972528  3.260163  3.115108  3.363636  3.448980  4.112360  4.132653 
dram[1]:  5.137500  5.077922  5.357143  4.634921  3.481482  3.256000  3.721739  4.000000  3.254335  2.966292  2.913580  3.465347  3.364780  3.688000  3.887755  3.822222 
dram[2]:  5.405797  5.777778  4.769231  6.302326  3.878505  3.305785  3.550848  4.225806  2.983240  3.401361  3.117647  3.065574  4.077586  3.690647  3.907217  4.011905 
dram[3]:  4.076087  5.500000  6.047619  5.508772  3.870968  2.992593  3.877778  3.167883  3.155689  3.069364  3.460000  3.543860  3.640000  3.295598  4.074074  4.770270 
dram[4]:  5.191176  5.054054  4.964912  5.900000  3.400000  3.369748  4.452381  3.218045  3.088608  2.858757  3.347458  2.879433  3.557971  3.272727  3.787234  4.000000 
dram[5]:  4.329670  4.987013  5.114754  4.983606  3.149660  3.483333  3.297710  3.908163  3.067416  3.157576  3.013699  3.324324  3.259036  3.344371  3.947917  3.955555 
average row locality = 39583/10742 = 3.684882
number of total memory accesses made:
dram[0]:         0         0         0         0         0         0         0         0         0         0         0         0         0         0         0         0 
dram[1]:         0         0         0         0         0         0         0         0         0         0         0         0         0         0         0         0 
dram[2]:         0         0         0         0         0         0         0         0         0         0         0         0         0         0         0         0 
dram[3]:         0         0         0         0         0         0         0         0         0         0         0         0         0         0         0         0 
dram[4]:         0         0         0         0         0         0         0         0         0         0         0         0         0         0         0         0 
dram[5]:         0         0         0         0         0         0         0         0         0         0         0         0         0         0         0         0 
total accesses: 0
min_bank_accesses = 0!
min_chip_accesses = 0!
number of total read accesses:
dram[0]:       176       168       131       146       179       174       163       187       214       217       161       178       211       209       156       172 
dram[1]:       181       172       128       129       193       167       173       148       229       211       194       140       219       191       165       149 
dram[2]:       167       164       136       121       172       164       166       159       216       203       174       150       189       211       165       143 
dram[3]:       164       164       111       135       147       169       142       176       211       215       139       168       186       215       146       151 
dram[4]:       157       162       126       131       168       166       148       175       200       206       161       167       199       203       153       166 
dram[5]:       175       170       137       134       197       169       174       153       214       209       182       146       217       211       162       152 
total reads: 16460
bank skew: 229/111 = 2.06
chip skew: 2842/2639 = 1.08
number of total write accesses:
dram[0]:       220       217       166       187       263       245       249       273       323       324       240       255       307       298       210       233 
dram[1]:       230       219       172       163       277       240       255       232       334       317       278       210       316       270       216       195 
dram[2]:       206       200       174       150       243       236       253       234       318       297       250       224       284       302       214       194 
dram[3]:       211       210       143       179       213       235       207       258       316       316       207       236       269       309       184       202 
dram[4]:       196       212       157       164       240       235       226       253       288       300       234       239       292       301       203       230 
dram[5]:       219       214       175       170       266       249       258       230       332       312       258       223       324       294       217       204 
total reads: 23123
bank skew: 334/143 = 2.34
chip skew: 4010/3695 = 1.09
average mf latency per bank:
dram[0]:        617       537       719       640       493       496       554       489       411       390       523       484       399       409       481       422
dram[1]:        663       490       661       673       438       463       516       533       374       390       426       549       361       394       425       448
dram[2]:        584       588       691       771       490       522       518       559       390       408       481       518       407       382       450       479
dram[3]:        538       579       806       637       546       526       576       486       383       374       535       481       405       359       479       460
dram[4]:        634       531       794       737       522       558       613       528       458       415       526       515       407       404       494       437
dram[5]:        539       522       693       669       432       479       502       541       378       377       440       524       359       366       427       455
maximum mf latency per bank:
dram[0]:       1295      1076      1674      1172      1999      1319      1373      1228      1356      1063      1289      1102      1497      1213      1244      1127
dram[1]:        985      1005      1318      1232      1284      1323      1277      1039      1064      1028      1095      1028       988       904       947       966
dram[2]:       1315      1333      1762      1750      1536      1530      1661      1442      1351      1508      1234      1318      1445      1273      1189      1332
dram[3]:       1138      1370      1535      1699      1341      1483      1218      1450      1156      1089      1000      1198      1148      1183      1053      1123
dram[4]:       1393      1514      1843      1844      1677      1619      1533      1589      1552      1374      1286      1359      1410      1402      1490      1311
dram[5]:       1365      1329      1802      1570      1635      1549      1784      1704      1337      1271      1235      1223      1320      1238      1312      1264

Number of Memory Banks Accessed per Memory Operation per Warp (from 0):
0	0	0	0	0	0	0	0	0	0	0	0	0	0	0	0	0	0	0	0	0	0	0	0	0	0	0	0	0	0	0	0	0	0	0	0	0	0	0	0	0	0	0	0	0	0	0	0	0	0	0	0	0	0	0	0	0	0	0	0	0	0	0	0	0	0	0	0	0	0	0	0	0	0	0	0	0	0	0	0	0	0	0	0	0	0	0	0	0	0	0	0	0	0	0	0	
Average # of Memory Banks Accessed per Memory Operation per Warp=-nan

position of mrq chosen
0	0	0	0	0	0	0	0	0	0	0	0	0	0	0	0	

average position of mrq chosen = -nan
Memory Partition 0: 
Cache L2_bank_000:
MSHR contents

Cache L2_bank_001:
MSHR contents

In Dram Latency Queue (total = 0): 
DRAM[0]: 16 bks, busW=4 BL=8 CL=12, tRRD=2 tCCD=6, tRCD=12 tRAS=28 tRP=12 tRC=40
n_cmd=191853 n_nop=174963 n_act=1831 n_pre=1815 n_req=6852 n_rd=5684 n_write=7560 bw_util=0.1381
n_activity=67281 dram_eff=0.3937
bk0: 352a 181825i bk1: 336a 182323i bk2: 262a 182892i bk3: 292a 182093i bk4: 358a 178270i bk5: 348a 178899i bk6: 326a 178323i bk7: 374a 177351i bk8: 428a 176984i bk9: 434a 176102i bk10: 322a 178416i bk11: 356a 178638i bk12: 422a 175951i bk13: 418a 176507i bk14: 312a 180056i bk15: 344a 179737i 
dram_util_bins: 0 0 0 0 0 0 0 0 0 0
dram_eff_bins: 0 0 0 0 0 0 0 0 0 0
mrqq: max=16 avg=1.34294
Memory Partition 1: 
Cache L2_bank_002:
MSHR contents

Cache L2_bank_003:
MSHR contents

In Dram Latency Queue (total = 0): 
DRAM[1]: 16 bks, busW=4 BL=8 CL=12, tRRD=2 tCCD=6, tRCD=12 tRAS=28 tRP=12 tRC=40
n_cmd=191853 n_nop=175230 n_act=1832 n_pre=1816 n_req=6713 n_rd=5578 n_write=7397 bw_util=0.1353
n_activity=67614 dram_eff=0.3838
bk0: 362a 181108i bk1: 344a 181765i bk2: 256a 182931i bk3: 258a 183039i bk4: 386a 177741i bk5: 334a 178404i bk6: 346a 177907i bk7: 296a 179862i bk8: 458a 176520i bk9: 422a 175912i bk10: 388a 177354i bk11: 280a 179978i bk12: 438a 175964i bk13: 382a 178150i bk14: 330a 180186i bk15: 298a 181057i 
dram_util_bins: 0 0 0 0 0 0 0 0 0 0
dram_eff_bins: 0 0 0 0 0 0 0 0 0 0
mrqq: max=16 avg=1.27371
Memory Partition 2: 
Cache L2_bank_004:
MSHR contents

Cache L2_bank_005:
MSHR contents

In Dram Latency Queue (total = 0): 
DRAM[2]: 16 bks, busW=4 BL=8 CL=12, tRRD=2 tCCD=6, tRCD=12 tRAS=28 tRP=12 tRC=40
n_cmd=191853 n_nop=175973 n_act=1699 n_pre=1683 n_req=6479 n_rd=5400 n_write=7098 bw_util=0.1303
n_activity=62442 dram_eff=0.4003
bk0: 334a 181823i bk1: 328a 182592i bk2: 272a 182806i bk3: 242a 183433i bk4: 344a 179163i bk5: 328a 179072i bk6: 332a 177463i bk7: 318a 178632i bk8: 432a 175722i bk9: 406a 176887i bk10: 348a 178077i bk11: 300a 178939i bk12: 378a 176929i bk13: 422a 176301i bk14: 330a 179269i bk15: 286a 180371i 
dram_util_bins: 0 0 0 0 0 0 0 0 0 0
dram_eff_bins: 0 0 0 0 0 0 0 0 0 0
mrqq: max=16 avg=1.39739
Memory Partition 3: 
Cache L2_bank_006:
MSHR contents

Cache L2_bank_007:
MSHR contents

In Dram Latency Queue (total = 0): 
DRAM[3]: 16 bks, busW=4 BL=8 CL=12, tRRD=2 tCCD=6, tRCD=12 tRAS=28 tRP=12 tRC=40
n_cmd=191853 n_nop=176227 n_act=1707 n_pre=1691 n_req=6334 n_rd=5278 n_write=6950 bw_util=0.1275
n_activity=63627 dram_eff=0.3844
bk0: 328a 182570i bk1: 328a 182457i bk2: 222a 184249i bk3: 270a 183148i bk4: 294a 181355i bk5: 338a 179418i bk6: 284a 180654i bk7: 352a 178187i bk8: 422a 177234i bk9: 430a 176412i bk10: 278a 180286i bk11: 336a 178831i bk12: 372a 178214i bk13: 430a 176405i bk14: 292a 181128i bk15: 302a 180861i 
dram_util_bins: 0 0 0 0 0 0 0 0 0 0
dram_eff_bins: 0 0 0 0 0 0 0 0 0 0
mrqq: max=16 avg=1.26589
Memory Partition 4: 
Cache L2_bank_008:
MSHR contents

Cache L2_bank_009:
MSHR contents

In Dram Latency Queue (total = 0): 
DRAM[4]: 16 bks, busW=4 BL=8 CL=12, tRRD=2 tCCD=6, tRCD=12 tRAS=28 tRP=12 tRC=40
n_cmd=191853 n_nop=175845 n_act=1784 n_pre=1768 n_req=6458 n_rd=5376 n_write=7080 bw_util=0.1298
n_activity=64155 dram_eff=0.3883
bk0: 314a 182305i bk1: 324a 182750i bk2: 252a 183083i bk3: 262a 182944i bk4: 336a 178431i bk5: 332a 178769i bk6: 296a 178805i bk7: 350a 178086i bk8: 400a 177629i bk9: 412a 176079i bk10: 322a 178450i bk11: 334a 178546i bk12: 398a 177070i bk13: 406a 176210i bk14: 306a 180511i bk15: 332a 179865i 
dram_util_bins: 0 0 0 0 0 0 0 0 0 0
dram_eff_bins: 0 0 0 0 0 0 0 0 0 0
mrqq: max=16 avg=1.36351
Memory Partition 5: 
Cache L2_bank_010:
MSHR contents

Cache L2_bank_011:
MSHR contents

In Dram Latency Queue (total = 0): 
DRAM[5]: 16 bks, busW=4 BL=8 CL=12, tRRD=2 tCCD=6, tRCD=12 tRAS=28 tRP=12 tRC=40
n_cmd=191853 n_nop=175049 n_act=1889 n_pre=1873 n_req=6747 n_rd=5604 n_write=7438 bw_util=0.136
n_activity=66447 dram_eff=0.3926
bk0: 350a 180834i bk1: 340a 182456i bk2: 274a 182525i bk3: 268a 182709i bk4: 394a 177082i bk5: 338a 178808i bk6: 348a 177789i bk7: 306a 179544i bk8: 428a 176140i bk9: 418a 176398i bk10: 364a 177997i bk11: 292a 179774i bk12: 434a 175435i bk13: 422a 176181i bk14: 324a 179997i bk15: 304a 180362i 
dram_util_bins: 0 0 0 0 0 0 0 0 0 0
dram_eff_bins: 0 0 0 0 0 0 0 0 0 0
mrqq: max=16 avg=1.31676

========= L2 cache stats =========
L2_cache_bank[0]: Access = 8149, Miss = 1391, Miss_rate = 0.171, Pending_hits = 78, Reservation_fails = 1066
L2_cache_bank[1]: Access = 8224, Miss = 1451, Miss_rate = 0.176, Pending_hits = 59, Reservation_fails = 600
L2_cache_bank[2]: Access = 8142, Miss = 1482, Miss_rate = 0.182, Pending_hits = 77, Reservation_fails = 878
L2_cache_bank[3]: Access = 7848, Miss = 1307, Miss_rate = 0.167, Pending_hits = 55, Reservation_fails = 415
L2_cache_bank[4]: Access = 7621, Miss = 1385, Miss_rate = 0.182, Pending_hits = 70, Reservation_fails = 899
L2_cache_bank[5]: Access = 7939, Miss = 1315, Miss_rate = 0.166, Pending_hits = 59, Reservation_fails = 380
L2_cache_bank[6]: Access = 7752, Miss = 1246, Miss_rate = 0.161, Pending_hits = 46, Reservation_fails = 379
L2_cache_bank[7]: Access = 7959, Miss = 1393, Miss_rate = 0.175, Pending_hits = 64, Reservation_fails = 414
L2_cache_bank[8]: Access = 8253, Miss = 1312, Miss_rate = 0.159, Pending_hits = 70, Reservation_fails = 644
L2_cache_bank[9]: Access = 7872, Miss = 1376, Miss_rate = 0.175, Pending_hits = 55, Reservation_fails = 310
L2_cache_bank[10]: Access = 8172, Miss = 1458, Miss_rate = 0.178, Pending_hits = 61, Reservation_fails = 629
L2_cache_bank[11]: Access = 7966, Miss = 1344, Miss_rate = 0.169, Pending_hits = 56, Reservation_fails = 325
L2_total_cache_accesses = 95897
L2_total_cache_misses = 16460
L2_total_cache_miss_rate = 0.1716
L2_total_cache_pending_hits = 750
L2_total_cache_reservation_fails = 6939
L2_total_cache_breakdown:
	L2_cache_stats_breakdown[GLOBAL_ACC_R][HIT] = 3829
	L2_cache_stats_breakdown[GLOBAL_ACC_R][HIT_RESERVED] = 15
	L2_cache_stats_breakdown[GLOBAL_ACC_R][MISS] = 268
	L2_cache_stats_breakdown[GLOBAL_ACC_R][RESERVATION_FAIL] = 366
	L2_cache_stats_breakdown[LOCAL_ACC_R][HIT] = 10791
	L2_cache_stats_breakdown[LOCAL_ACC_R][HIT_RESERVED] = 30
	L2_cache_stats_breakdown[LOCAL_ACC_R][MISS] = 755
	L2_cache_stats_breakdown[CONST_ACC_R][HIT] = 22
	L2_cache_stats_breakdown[CONST_ACC_R][HIT_RESERVED] = 6
	L2_cache_stats_breakdown[CONST_ACC_R][MISS] = 2
	L2_cache_stats_breakdown[CONST_ACC_R][RESERVATION_FAIL] = 574
	L2_cache_stats_breakdown[GLOBAL_ACC_W][HIT] = 5616
	L2_cache_stats_breakdown[GLOBAL_ACC_W][HIT_RESERVED] = 528
	L2_cache_stats_breakdown[GLOBAL_ACC_W][MISS] = 2048
	L2_cache_stats_breakdown[GLOBAL_ACC_W][RESERVATION_FAIL] = 7
	L2_cache_stats_breakdown[LOCAL_ACC_W][HIT] = 40340
	L2_cache_stats_breakdown[LOCAL_ACC_W][HIT_RESERVED] = 14
	L2_cache_stats_breakdown[LOCAL_ACC_W][MISS] = 12440
	L2_cache_stats_breakdown[LOCAL_ACC_W][RESERVATION_FAIL] = 179
	L2_cache_stats_breakdown[L1_WRBK_ACC][HIT] = 5765
	L2_cache_stats_breakdown[L1_WRBK_ACC][MISS] = 894
	L2_cache_stats_breakdown[INST_ACC_R][HIT] = 12324
	L2_cache_stats_breakdown[INST_ACC_R][HIT_RESERVED] = 157
	L2_cache_stats_breakdown[INST_ACC_R][MISS] = 53
	L2_cache_stats_breakdown[INST_ACC_R][RESERVATION_FAIL] = 5813
L2_cache_data_port_util = 0.174
L2_cache_fill_port_util = 0.038

icnt_total_pkts_mem_to_simt=202186
icnt_total_pkts_simt_to_mem=346258
LD_mem_lat_dist  0 0 0 0 0 0 0 0 0 0 0 0 0 0 0 0 0 0 0 0 0 0 0 0 0 0 0
ST_mem_lat_dist  0 0 0 0 0 0 0 0 0 0 0 0 0 0 0 0 0 0 0 0 0 0 0 0 0 0 0
----------------------------Interconnect-DETAILS--------------------------------
Class 0:
Packet latency average = 17.0189
	minimum = 6
	maximum = 703
Network latency average = 13.4264
	minimum = 6
	maximum = 678
Slowest packet = 707
Flit latency average = 12.3104
	minimum = 6
	maximum = 674
Slowest flit = 10925
Fragmentation average = 0.0939909
	minimum = 0
	maximum = 551
Injected packet rate average = 0.0471767
	minimum = 0.0401049 (at node 1)
	maximum = 0.0529846 (at node 23)
Accepted packet rate average = 0.0471767
	minimum = 0.0379789 (at node 1)
	maximum = 0.0567825 (at node 23)
Injected flit rate average = 0.139756
	minimum = 0.107338 (at node 19)
	maximum = 0.172591 (at node 3)
Accepted flit rate average= 0.139756
	minimum = 0.0803611 (at node 1)
	maximum = 0.206324 (at node 15)
Injected packet length average = 2.9624
Accepted packet length average = 2.9624
Total in-flight flits = 0 (0 measured)
====== Overall Traffic Statistics ======
====== Traffic class 0 ======
Packet latency average = 17.0189 (1 samples)
	minimum = 6 (1 samples)
	maximum = 703 (1 samples)
Network latency average = 13.4264 (1 samples)
	minimum = 6 (1 samples)
	maximum = 678 (1 samples)
Flit latency average = 12.3104 (1 samples)
	minimum = 6 (1 samples)
	maximum = 674 (1 samples)
Fragmentation average = 0.0939909 (1 samples)
	minimum = 0 (1 samples)
	maximum = 551 (1 samples)
Injected packet rate average = 0.0471767 (1 samples)
	minimum = 0.0401049 (1 samples)
	maximum = 0.0529846 (1 samples)
Accepted packet rate average = 0.0471767 (1 samples)
	minimum = 0.0379789 (1 samples)
	maximum = 0.0567825 (1 samples)
Injected flit rate average = 0.139756 (1 samples)
	minimum = 0.107338 (1 samples)
	maximum = 0.172591 (1 samples)
Accepted flit rate average = 0.139756 (1 samples)
	minimum = 0.0803611 (1 samples)
	maximum = 0.206324 (1 samples)
Injected packet size average = 2.9624 (1 samples)
Accepted packet size average = 2.9624 (1 samples)
Hops average = 1 (1 samples)
----------------------------END-of-Interconnect-DETAILS-------------------------
GPGPU-Sim API: Stream Manager State


gpgpu_simulation_time = 0 days, 0 hrs, 3 min, 39 sec (219 sec)
gpgpu_simulation_rate = 286221 (inst/sec)
gpgpu_simulation_rate = 663 (cycle/sec)
GPGPU-Sim: detected inactive GPU simulation thread

checksum=75ef40cb5b8e
Kernel Time: 218199.203125 
