

        *** GPGPU-Sim Simulator Version 3.2.2  [build 0] ***


GPGPU-Sim PTX: simulation mode 0 (can change with PTX_SIM_MODE_FUNC environment variable:
               1=functional simulation only, 0=detailed performance simulator)
GPGPU-Sim: Configuration options:

-network_mode                           1 # Interconnection network mode
-inter_config_file   config_fermi_islip.icnt # Interconnection network config file
-gpgpu_ptx_use_cuobjdump                    1 # Use cuobjdump to extract ptx and sass from binaries
-gpgpu_experimental_lib_support                    0 # Try to extract code from cuda libraries [Broken because of unknown cudaGetExportTable]
-gpgpu_ptx_convert_to_ptxplus                    0 # Convert SASS (native ISA) to ptxplus and run ptxplus
-gpgpu_ptx_force_max_capability                   20 # Force maximum compute capability
-gpgpu_ptx_inst_debug_to_file                    0 # Dump executed instructions' debug information to file
-gpgpu_ptx_inst_debug_file       inst_debug.txt # Executed instructions' debug output file
-gpgpu_ptx_inst_debug_thread_uid                    1 # Thread UID for executed instructions' debug output
-gpgpu_simd_model                       1 # 1 = post-dominator
-gpgpu_shader_core_pipeline              1536:32 # shader core pipeline config, i.e., {<nthread>:<warpsize>}
-gpgpu_tex_cache:l1  4:128:24,L:R:m:N:L,F:128:4,128:2 # per-shader L1 texture cache  (READ-ONLY) config  {<nsets>:<bsize>:<assoc>,<rep>:<wr>:<alloc>:<wr_alloc>,<mshr>:<N>:<merge>,<mq>:<rf>}
-gpgpu_const_cache:l1 64:64:2,L:R:f:N:L,A:2:32,4 # per-shader L1 constant memory cache  (READ-ONLY) config  {<nsets>:<bsize>:<assoc>,<rep>:<wr>:<alloc>:<wr_alloc>,<mshr>:<N>:<merge>,<mq>} 
-gpgpu_cache:il1     4:128:4,L:R:f:N:L,A:2:32,4 # shader L1 instruction cache config  {<nsets>:<bsize>:<assoc>,<rep>:<wr>:<alloc>:<wr_alloc>,<mshr>:<N>:<merge>,<mq>} 
-gpgpu_cache:dl1     64:128:2,L:L:m:N:H,A:32:8,8 # per-shader L1 data cache config  {<nsets>:<bsize>:<assoc>,<rep>:<wr>:<alloc>:<wr_alloc>,<mshr>:<N>:<merge>,<mq> | none}
-gpgpu_cache:dl1PrefL1                 none # per-shader L1 data cache config  {<nsets>:<bsize>:<assoc>,<rep>:<wr>:<alloc>:<wr_alloc>,<mshr>:<N>:<merge>,<mq> | none}
-gpgpu_cache:dl1PreShared                 none # per-shader L1 data cache config  {<nsets>:<bsize>:<assoc>,<rep>:<wr>:<alloc>:<wr_alloc>,<mshr>:<N>:<merge>,<mq> | none}
-gmem_skip_L1D                          0 # global memory access skip L1D cache (implements -Xptxas -dlcm=cg, default=no skip)
-gpgpu_perfect_mem                      0 # enable perfect memory mode (no cache miss)
-n_regfile_gating_group                    4 # group of lanes that should be read/written together)
-gpgpu_clock_gated_reg_file                    0 # enable clock gated reg file for power calculations
-gpgpu_clock_gated_lanes                    0 # enable clock gated lanes for power calculations
-gpgpu_shader_registers                32768 # Number of registers per shader core. Limits number of concurrent CTAs. (default 8192)
-gpgpu_shader_cta                       8 # Maximum number of concurrent CTAs in shader (default 8)
-gpgpu_num_cta_barriers                   16 # Maximum number of named barriers per CTA (default 16)
-gpgpu_n_clusters                      15 # number of processing clusters
-gpgpu_n_cores_per_cluster                    1 # number of simd cores per cluster
-gpgpu_n_cluster_ejection_buffer_size                    8 # number of packets in ejection buffer
-gpgpu_n_ldst_response_buffer_size                    2 # number of response packets in ld/st unit ejection buffer
-gpgpu_shmem_size                   16384 # Size of shared memory per shader core (default 16kB)
-gpgpu_shmem_size                   49152 # Size of shared memory per shader core (default 16kB)
-gpgpu_shmem_size_PrefL1                16384 # Size of shared memory per shader core (default 16kB)
-gpgpu_shmem_size_PrefShared                16384 # Size of shared memory per shader core (default 16kB)
-gpgpu_shmem_num_banks                   32 # Number of banks in the shared memory in each shader core (default 16)
-gpgpu_shmem_limited_broadcast                    0 # Limit shared memory to do one broadcast per cycle (default on)
-gpgpu_shmem_warp_parts                    1 # Number of portions a warp is divided into for shared memory bank conflict check 
-gpgpu_warpdistro_shader                   -1 # Specify which shader core to collect the warp size distribution from
-gpgpu_warp_issue_shader                    0 # Specify which shader core to collect the warp issue distribution from
-gpgpu_local_mem_map                    1 # Mapping from local memory space address to simulated GPU physical address space (default = enabled)
-gpgpu_num_reg_banks                   16 # Number of register banks (default = 8)
-gpgpu_reg_bank_use_warp_id                    0 # Use warp ID in mapping registers to banks (default = off)
-gpgpu_operand_collector_num_units_sp                    6 # number of collector units (default = 4)
-gpgpu_operand_collector_num_units_sfu                    8 # number of collector units (default = 4)
-gpgpu_operand_collector_num_units_mem                    2 # number of collector units (default = 2)
-gpgpu_operand_collector_num_units_gen                    0 # number of collector units (default = 0)
-gpgpu_operand_collector_num_in_ports_sp                    2 # number of collector unit in ports (default = 1)
-gpgpu_operand_collector_num_in_ports_sfu                    1 # number of collector unit in ports (default = 1)
-gpgpu_operand_collector_num_in_ports_mem                    1 # number of collector unit in ports (default = 1)
-gpgpu_operand_collector_num_in_ports_gen                    0 # number of collector unit in ports (default = 0)
-gpgpu_operand_collector_num_out_ports_sp                    2 # number of collector unit in ports (default = 1)
-gpgpu_operand_collector_num_out_ports_sfu                    1 # number of collector unit in ports (default = 1)
-gpgpu_operand_collector_num_out_ports_mem                    1 # number of collector unit in ports (default = 1)
-gpgpu_operand_collector_num_out_ports_gen                    0 # number of collector unit in ports (default = 0)
-gpgpu_coalesce_arch                   13 # Coalescing arch (default = 13, anything else is off for now)
-gpgpu_num_sched_per_core                    2 # Number of warp schedulers per core
-gpgpu_max_insn_issue_per_warp                    1 # Max number of instructions that can be issued per warp in one cycle by scheduler
-gpgpu_simt_core_sim_order                    1 # Select the simulation order of cores in a cluster (0=Fix, 1=Round-Robin)
-gpgpu_pipeline_widths        2,1,1,2,1,1,2 # Pipeline widths ID_OC_SP,ID_OC_SFU,ID_OC_MEM,OC_EX_SP,OC_EX_SFU,OC_EX_MEM,EX_WB
-gpgpu_num_sp_units                     2 # Number of SP units (default=1)
-gpgpu_num_sfu_units                    1 # Number of SF units (default=1)
-gpgpu_num_mem_units                    1 # Number if ldst units (default=1) WARNING: not hooked up to anything
-gpgpu_scheduler                      gto # Scheduler configuration: < lrr | gto | two_level_active > If two_level_active:<num_active_warps>:<inner_prioritization>:<outer_prioritization>For complete list of prioritization values see shader.h enum scheduler_prioritization_typeDefault: gto
-gpgpu_dram_scheduler                    1 # 0 = fifo, 1 = FR-FCFS (defaul)
-gpgpu_dram_partition_queues              8:8:8:8 # i2$:$2d:d2$:$2i
-l2_ideal                               0 # Use a ideal L2 cache that always hit
-gpgpu_cache:dl2     64:128:8,L:B:m:W:L,A:32:4,4:0,32 # unified banked L2 data cache config  {<nsets>:<bsize>:<assoc>,<rep>:<wr>:<alloc>:<wr_alloc>,<mshr>:<N>:<merge>,<mq>}
-gpgpu_cache:dl2_texture_only                    0 # L2 cache used for texture only
-gpgpu_n_mem                            6 # number of memory modules (e.g. memory controllers) in gpu
-gpgpu_n_sub_partition_per_mchannel                    2 # number of memory subpartition in each memory module
-gpgpu_n_mem_per_ctrlr                    2 # number of memory chips per memory controller
-gpgpu_memlatency_stat                   14 # track and display latency statistics 0x2 enables MC, 0x4 enables queue logs
-gpgpu_frfcfs_dram_sched_queue_size                   16 # 0 = unlimited (default); # entries per chip
-gpgpu_dram_return_queue_size                  116 # 0 = unlimited (default); # entries per chip
-gpgpu_dram_buswidth                    4 # default = 4 bytes (8 bytes per cycle at DDR)
-gpgpu_dram_burst_length                    8 # Burst length of each DRAM request (default = 4 data bus cycle)
-dram_data_command_freq_ratio                    4 # Frequency ratio between DRAM data bus and command bus (default = 2 times, i.e. DDR)
-gpgpu_dram_timing_opt nbk=16:CCD=2:RRD=6:RCD=12:RAS=28:RP=12:RC=40: CL=12:WL=4:CDLR=5:WR=12:nbkgrp=4:CCDL=3:RTPL=2 # DRAM timing parameters = {nbk:tCCD:tRRD:tRCD:tRAS:tRP:tRC:CL:WL:tCDLR:tWR:nbkgrp:tCCDL:tRTPL}
-rop_latency                          120 # ROP queue latency (default 85)
-dram_latency                         100 # DRAM latency (default 30)
-gpgpu_mem_addr_mapping dramid@8;00000000.00000000.00000000.00000000.0000RRRR.RRRRRRRR.BBBCCCCB.CCSSSSSS # mapping memory address to dram model {dramid@<start bit>;<memory address map>}
-gpgpu_mem_addr_test                    0 # run sweep test to check address mapping for aliased address
-gpgpu_mem_address_mask                    1 # 0 = old addressing mask, 1 = new addressing mask, 2 = new add. mask + flipped bank sel and chip sel bits
-gpuwattch_xml_file  gpuwattch_gtx480.xml # GPUWattch XML file
-power_simulation_enabled                    1 # Turn on power simulator (1=On, 0=Off)
-power_per_cycle_dump                    0 # Dump detailed power output each cycle
-power_trace_enabled                    0 # produce a file for the power trace (1=On, 0=Off)
-power_trace_zlevel                     6 # Compression level of the power trace output log (0=no comp, 9=highest)
-steady_power_levels_enabled                    0 # produce a file for the steady power levels (1=On, 0=Off)
-steady_state_definition                  8:4 # allowed deviation:number of samples
-gpgpu_max_cycle                        0 # terminates gpu simulation early (0 = no limit)
-gpgpu_max_insn                         0 # terminates gpu simulation early (0 = no limit)
-gpgpu_max_cta                          0 # terminates gpu simulation early (0 = no limit)
-gpgpu_runtime_stat                   500 # display runtime statistics such as dram utilization {<freq>:<flag>}
-liveness_message_freq                    1 # Minimum number of seconds between simulation liveness messages (0 = always print)
-gpgpu_flush_l1_cache                    0 # Flush L1 cache at the end of each kernel call
-gpgpu_flush_l2_cache                    0 # Flush L2 cache at the end of each kernel call
-gpgpu_deadlock_detect                    1 # Stop the simulation at deadlock (1=on (default), 0=off)
-gpgpu_ptx_instruction_classification                    0 # if enabled will classify ptx instruction types per kernel (Max 255 kernels now)
-gpgpu_ptx_sim_mode                     0 # Select between Performance (default) or Functional simulation (1)
-gpgpu_clock_domains 700.0:700.0:700.0:924.0 # Clock Domain Frequencies in MhZ {<Core Clock>:<ICNT Clock>:<L2 Clock>:<DRAM Clock>}
-gpgpu_max_concurrent_kernel                    8 # maximum kernels that can run concurrently on GPU
-gpgpu_cflog_interval                    0 # Interval between each snapshot in control flow logger
-visualizer_enabled                     0 # Turn on visualizer output (1=On, 0=Off)
-visualizer_outputfile                 NULL # Specifies the output log file for visualizer
-visualizer_zlevel                      6 # Compression level of the visualizer output log (0=no comp, 9=highest)
-trace_enabled                          0 # Turn on traces
-trace_components                    none # comma seperated list of traces to enable. Complete list found in trace_streams.tup. Default none
-trace_sampling_core                    0 # The core which is printed using CORE_DPRINTF. Default 0
-trace_sampling_memory_partition                   -1 # The memory partition which is printed using MEMPART_DPRINTF. Default -1 (i.e. all)
-enable_ptx_file_line_stats                    1 # Turn on PTX source line statistic profiling. (1 = On)
-ptx_line_stats_filename gpgpu_inst_stats.txt # Output file for PTX source line statistics.
-save_embedded_ptx                      0 # saves ptx files embedded in binary as <n>.ptx
-keep                                   0 # keep intermediate files created by GPGPU-Sim when interfacing with external programs
-gpgpu_ptx_save_converted_ptxplus                    0 # Saved converted ptxplus to a file
-ptx_opcode_latency_int         4,13,4,5,145 # Opcode latencies for integers <ADD,MAX,MUL,MAD,DIV>Default 1,1,19,25,145
-ptx_opcode_latency_fp          4,13,4,5,39 # Opcode latencies for single precision floating points <ADD,MAX,MUL,MAD,DIV>Default 1,1,1,1,30
-ptx_opcode_latency_dp         8,19,8,8,330 # Opcode latencies for double precision floating points <ADD,MAX,MUL,MAD,DIV>Default 8,8,8,8,335
-ptx_opcode_initiation_int            1,2,2,1,8 # Opcode initiation intervals for integers <ADD,MAX,MUL,MAD,DIV>Default 1,1,4,4,32
-ptx_opcode_initiation_fp            1,2,1,1,4 # Opcode initiation intervals for single precision floating points <ADD,MAX,MUL,MAD,DIV>Default 1,1,1,1,5
-ptx_opcode_initiation_dp         8,16,8,8,130 # Opcode initiation intervals for double precision floating points <ADD,MAX,MUL,MAD,DIV>Default 8,8,8,8,130
DRAM Timing Options:
nbk                                    16 # number of banks
CCD                                     2 # column to column delay
RRD                                     6 # minimal delay between activation of rows in different banks
RCD                                    12 # row to column delay
RAS                                    28 # time needed to activate row
RP                                     12 # time needed to precharge (deactivate) row
RC                                     40 # row cycle time
CDLR                                    5 # switching from write to read (changes tWTR)
WR                                     12 # last data-in to row precharge
CL                                     12 # CAS latency
WL                                      4 # Write latency
nbkgrp                                  4 # number of bank groups
CCDL                                    3 # column to column delay between accesses to different bank groups
RTPL                                    2 # read to precharge delay between accesses to different bank groups
Total number of memory sub partition = 12
addr_dec_mask[CHIP]  = 0000000000000000 	high:64 low:0
addr_dec_mask[BK]    = 000000000000e100 	high:16 low:8
addr_dec_mask[ROW]   = 000000000fff0000 	high:28 low:16
addr_dec_mask[COL]   = 0000000000001eff 	high:13 low:0
addr_dec_mask[BURST] = 000000000000003f 	high:6 low:0
sub_partition_id_mask = 0000000000000100
GPGPU-Sim uArch: clock freqs: 700000000.000000:700000000.000000:700000000.000000:924000000.000000
GPGPU-Sim uArch: clock periods: 0.00000000142857142857:0.00000000142857142857:0.00000000142857142857:0.00000000108225108225
*** Initializing Memory Statistics ***
GPGPU-Sim uArch: interconnect node map (shaderID+MemID to icntID)
GPGPU-Sim uArch: Memory nodes ID start from index: 15
GPGPU-Sim uArch:    0   1   2   3   4
GPGPU-Sim uArch:    5   6   7   8   9
GPGPU-Sim uArch:   10  11  12  13  14
GPGPU-Sim uArch:   15  16  17  18  19
GPGPU-Sim uArch:   20  21  22  23  24
GPGPU-Sim uArch:   25  26
GPGPU-Sim uArch: interconnect node reverse map (icntID to shaderID+MemID)
GPGPU-Sim uArch: Memory nodes start from ID: 15
GPGPU-Sim uArch:    0   1   2   3   4
GPGPU-Sim uArch:    5   6   7   8   9
GPGPU-Sim uArch:   10  11  12  13  14
GPGPU-Sim uArch:   15  16  17  18  19
GPGPU-Sim uArch:   20  21  22  23  24
GPGPU-Sim uArch:   25  26
fa24d9d62d9e9d43df0eb292e3b27e2e  /home/scratch/adwait/applications/benchmarks/CUDA/BFS/gpgpu_ptx_sim__BFS
GPGPU-Sim uArch: performance model initialization complete.
GPGPU-Sim PTX: __cudaRegisterFatBinary, fat_cubin_handle = 1, filename=bfs.cu
self exe links to: /home/scratch/adwait/applications/benchmarks/CUDA/BFS/gpgpu_ptx_sim__BFS
Running md5sum using "md5sum /home/scratch/adwait/applications/benchmarks/CUDA/BFS/gpgpu_ptx_sim__BFS "
Running cuobjdump using "$CUDA_INSTALL_PATH/bin/cuobjdump -ptx -elf -sass /home/scratch/adwait/applications/benchmarks/CUDA/BFS/gpgpu_ptx_sim__BFS > _cuobjdump_complete_output_DkHo8W"
Parsing file _cuobjdump_complete_output_DkHo8W
######### cuobjdump parser ########
## Adding new section ELF
Adding arch: sm_20
Adding identifier: bfs.cu
## Adding new section PTX
Adding ptx filename: _cuobjdump_1.ptx
Adding arch: sm_20
Adding identifier: bfs.cu
Done parsing!!!
GPGPU-Sim PTX: __cudaRegisterFunction _Z6KernelP4NodePiPbS2_S1_S2_i : hostFun 0x0x404fc4, fat_cubin_handle = 1
GPGPU-Sim PTX: instruction assembly for function '_Z6KernelP4NodePiPbS2_S1_S2_i'...   done.
GPGPU-Sim PTX: finding reconvergence points for '_Z6KernelP4NodePiPbS2_S1_S2_i'...
GPGPU-Sim PTX: Finding dominators for '_Z6KernelP4NodePiPbS2_S1_S2_i'...
GPGPU-Sim PTX: Finding immediate dominators for '_Z6KernelP4NodePiPbS2_S1_S2_i'...
GPGPU-Sim PTX: Finding postdominators for '_Z6KernelP4NodePiPbS2_S1_S2_i'...
GPGPU-Sim PTX: Finding immediate postdominators for '_Z6KernelP4NodePiPbS2_S1_S2_i'...
GPGPU-Sim PTX: pre-decoding instructions for '_Z6KernelP4NodePiPbS2_S1_S2_i'...
GPGPU-Sim PTX: reconvergence points for _Z6KernelP4NodePiPbS2_S1_S2_i...
GPGPU-Sim PTX:  1 (potential) branch divergence @  PC=0x030 (_1.ptx:72) @%p1 bra $Lt_0_5122;
GPGPU-Sim PTX:    immediate post dominator      @  PC=0x1e8 (_1.ptx:141) exit;
GPGPU-Sim PTX:  2 (potential) branch divergence @  PC=0x068 (_1.ptx:79) @%p2 bra $Lt_0_5122;
GPGPU-Sim PTX:    immediate post dominator      @  PC=0x1e8 (_1.ptx:141) exit;
GPGPU-Sim PTX:  3 (potential) branch divergence @  PC=0x0e0 (_1.ptx:97) @%p3 bra $Lt_0_5122;
GPGPU-Sim PTX:    immediate post dominator      @  PC=0x1e8 (_1.ptx:141) exit;
GPGPU-Sim PTX:  4 (potential) branch divergence @  PC=0x138 (_1.ptx:111) @%p4 bra $Lt_0_4354;
GPGPU-Sim PTX:    immediate post dominator      @  PC=0x1c8 (_1.ptx:134) add.s32 %r11, %r11, 1;
GPGPU-Sim PTX:  5 (potential) branch divergence @  PC=0x1e0 (_1.ptx:137) @%p5 bra $Lt_0_4098;
GPGPU-Sim PTX:    immediate post dominator      @  PC=0x1e8 (_1.ptx:141) exit;
GPGPU-Sim PTX: ... end of reconvergence points for _Z6KernelP4NodePiPbS2_S1_S2_i
GPGPU-Sim PTX: ... done pre-decoding instructions for '_Z6KernelP4NodePiPbS2_S1_S2_i'.
GPGPU-Sim PTX: finished parsing EMBEDDED .ptx file _1.ptx
Adding _cuobjdump_1.ptx with cubin handle 1
GPGPU-Sim PTX: extracting embedded .ptx to temporary file "_ptx_69ApAF"
Running: cat _ptx_69ApAF | sed 's/.version 1.5/.version 1.4/' | sed 's/, texmode_independent//' | sed 's/\(\.extern \.const\[1\] .b8 \w\+\)\[\]/\1\[1\]/' | sed 's/const\[.\]/const\[0\]/g' > _ptx2_5n4M2n
GPGPU-Sim PTX: generating ptxinfo using "$CUDA_INSTALL_PATH/bin/ptxas --gpu-name=sm_20 -v _ptx2_5n4M2n --output-file  /dev/null 2> _ptx_69ApAFinfo"
GPGPU-Sim PTX: Kernel '_Z6KernelP4NodePiPbS2_S1_S2_i' : regs=18, lmem=0, smem=0, cmem=84
GPGPU-Sim PTX: removing ptxinfo using "rm -f _ptx_69ApAF _ptx2_5n4M2n _ptx_69ApAFinfo"
GPGPU-Sim PTX: loading globals with explicit initializers... 
GPGPU-Sim PTX: finished loading globals (0 bytes total).
GPGPU-Sim PTX: loading constants with explicit initializers...  done.
Reading File
Input file: ./data/graph65536.txt
Read File
Copied Everything to GPU memory

GPGPU-Sim PTX: cudaLaunch for 0x0x404fc4 (mode=performance simulation) on stream 0
GPGPU-Sim PTX: pushing kernel '_Z6KernelP4NodePiPbS2_S1_S2_i' to stream 0, gridDim= (256,1,1) blockDim = (256,1,1) 
kernel '_Z6KernelP4NodePiPbS2_S1_S2_i' transfer to GPU hardware scheduler
GPGPU-Sim uArch: Shader 1 bind to kernel 1 '_Z6KernelP4NodePiPbS2_S1_S2_i'
GPGPU-Sim uArch: CTA/core = 6, limited by: threads regs
GPGPU-Sim uArch: core:  1, cta: 0 initialized @(1,0)
GPGPU-Sim uArch: Shader 2 bind to kernel 1 '_Z6KernelP4NodePiPbS2_S1_S2_i'
GPGPU-Sim uArch: core:  2, cta: 0 initialized @(1,0)
GPGPU-Sim uArch: Shader 3 bind to kernel 1 '_Z6KernelP4NodePiPbS2_S1_S2_i'
GPGPU-Sim uArch: core:  3, cta: 0 initialized @(1,0)
GPGPU-Sim uArch: Shader 4 bind to kernel 1 '_Z6KernelP4NodePiPbS2_S1_S2_i'
GPGPU-Sim uArch: core:  4, cta: 0 initialized @(1,0)
GPGPU-Sim uArch: Shader 5 bind to kernel 1 '_Z6KernelP4NodePiPbS2_S1_S2_i'
GPGPU-Sim uArch: core:  5, cta: 0 initialized @(1,0)
GPGPU-Sim uArch: Shader 6 bind to kernel 1 '_Z6KernelP4NodePiPbS2_S1_S2_i'
GPGPU-Sim uArch: core:  6, cta: 0 initialized @(1,0)
GPGPU-Sim uArch: Shader 7 bind to kernel 1 '_Z6KernelP4NodePiPbS2_S1_S2_i'
GPGPU-Sim uArch: core:  7, cta: 0 initialized @(1,0)
GPGPU-Sim uArch: Shader 8 bind to kernel 1 '_Z6KernelP4NodePiPbS2_S1_S2_i'
GPGPU-Sim uArch: core:  8, cta: 0 initialized @(1,0)
GPGPU-Sim uArch: Shader 9 bind to kernel 1 '_Z6KernelP4NodePiPbS2_S1_S2_i'
GPGPU-Sim uArch: core:  9, cta: 0 initialized @(1,0)
GPGPU-Sim uArch: Shader 10 bind to kernel 1 '_Z6KernelP4NodePiPbS2_S1_S2_i'
GPGPU-Sim uArch: core: 10, cta: 0 initialized @(1,0)
GPGPU-Sim uArch: Shader 11 bind to kernel 1 '_Z6KernelP4NodePiPbS2_S1_S2_i'
GPGPU-Sim uArch: core: 11, cta: 0 initialized @(1,0)
GPGPU-Sim uArch: Shader 12 bind to kernel 1 '_Z6KernelP4NodePiPbS2_S1_S2_i'
GPGPU-Sim uArch: core: 12, cta: 0 initialized @(1,0)
GPGPU-Sim uArch: Shader 13 bind to kernel 1 '_Z6KernelP4NodePiPbS2_S1_S2_i'
GPGPU-Sim uArch: core: 13, cta: 0 initialized @(1,0)
GPGPU-Sim uArch: Shader 14 bind to kernel 1 '_Z6KernelP4NodePiPbS2_S1_S2_i'
GPGPU-Sim uArch: core: 14, cta: 0 initialized @(1,0)
GPGPU-Sim uArch: Shader 0 bind to kernel 1 '_Z6KernelP4NodePiPbS2_S1_S2_i'
GPGPU-Sim uArch: core:  0, cta: 0 initialized @(1,0)
GPGPU-Sim uArch: core:  1, cta: 1 initialized @(2,0)
GPGPU-Sim uArch: core:  2, cta: 1 initialized @(2,0)
GPGPU-Sim uArch: core:  3, cta: 1 initialized @(2,0)
GPGPU-Sim uArch: core:  4, cta: 1 initialized @(2,0)
GPGPU-Sim uArch: core:  5, cta: 1 initialized @(2,0)
GPGPU-Sim uArch: core:  6, cta: 1 initialized @(2,0)
GPGPU-Sim uArch: core:  7, cta: 1 initialized @(2,0)
GPGPU-Sim uArch: core:  8, cta: 1 initialized @(2,0)
GPGPU-Sim uArch: core:  9, cta: 1 initialized @(2,0)
GPGPU-Sim uArch: core: 10, cta: 1 initialized @(2,0)
GPGPU-Sim uArch: core: 11, cta: 1 initialized @(2,0)
GPGPU-Sim uArch: core: 12, cta: 1 initialized @(2,0)
GPGPU-Sim uArch: core: 13, cta: 1 initialized @(2,0)
GPGPU-Sim uArch: core: 14, cta: 1 initialized @(2,0)
GPGPU-Sim uArch: core:  0, cta: 1 initialized @(2,0)
GPGPU-Sim uArch: core:  1, cta: 2 initialized @(3,0)
GPGPU-Sim uArch: core:  2, cta: 2 initialized @(3,0)
GPGPU-Sim uArch: core:  3, cta: 2 initialized @(3,0)
GPGPU-Sim uArch: core:  4, cta: 2 initialized @(3,0)
GPGPU-Sim uArch: core:  5, cta: 2 initialized @(3,0)
GPGPU-Sim uArch: core:  6, cta: 2 initialized @(3,0)
GPGPU-Sim uArch: core:  7, cta: 2 initialized @(3,0)
GPGPU-Sim uArch: core:  8, cta: 2 initialized @(3,0)
GPGPU-Sim uArch: core:  9, cta: 2 initialized @(3,0)
GPGPU-Sim uArch: core: 10, cta: 2 initialized @(3,0)
GPGPU-Sim uArch: core: 11, cta: 2 initialized @(3,0)
GPGPU-Sim uArch: core: 12, cta: 2 initialized @(3,0)
GPGPU-Sim uArch: core: 13, cta: 2 initialized @(3,0)
GPGPU-Sim uArch: core: 14, cta: 2 initialized @(3,0)
GPGPU-Sim uArch: core:  0, cta: 2 initialized @(3,0)
GPGPU-Sim uArch: core:  1, cta: 3 initialized @(4,0)
GPGPU-Sim uArch: core:  2, cta: 3 initialized @(4,0)
GPGPU-Sim uArch: core:  3, cta: 3 initialized @(4,0)
GPGPU-Sim uArch: core:  4, cta: 3 initialized @(4,0)
GPGPU-Sim uArch: core:  5, cta: 3 initialized @(4,0)
GPGPU-Sim uArch: core:  6, cta: 3 initialized @(4,0)
GPGPU-Sim uArch: core:  7, cta: 3 initialized @(4,0)
GPGPU-Sim uArch: core:  8, cta: 3 initialized @(4,0)
GPGPU-Sim uArch: core:  9, cta: 3 initialized @(4,0)
GPGPU-Sim uArch: core: 10, cta: 3 initialized @(4,0)
GPGPU-Sim uArch: core: 11, cta: 3 initialized @(4,0)
GPGPU-Sim uArch: core: 12, cta: 3 initialized @(4,0)
GPGPU-Sim uArch: core: 13, cta: 3 initialized @(4,0)
GPGPU-Sim uArch: core: 14, cta: 3 initialized @(4,0)
GPGPU-Sim uArch: core:  0, cta: 3 initialized @(4,0)
GPGPU-Sim uArch: core:  1, cta: 4 initialized @(5,0)
GPGPU-Sim uArch: core:  2, cta: 4 initialized @(5,0)
GPGPU-Sim uArch: core:  3, cta: 4 initialized @(5,0)
GPGPU-Sim uArch: core:  4, cta: 4 initialized @(5,0)
GPGPU-Sim uArch: core:  5, cta: 4 initialized @(5,0)
GPGPU-Sim uArch: core:  6, cta: 4 initialized @(5,0)
GPGPU-Sim uArch: core:  7, cta: 4 initialized @(5,0)
GPGPU-Sim uArch: core:  8, cta: 4 initialized @(5,0)
GPGPU-Sim uArch: core:  9, cta: 4 initialized @(5,0)
GPGPU-Sim uArch: core: 10, cta: 4 initialized @(5,0)
GPGPU-Sim uArch: core: 11, cta: 4 initialized @(5,0)
GPGPU-Sim uArch: core: 12, cta: 4 initialized @(5,0)
GPGPU-Sim uArch: core: 13, cta: 4 initialized @(5,0)
GPGPU-Sim uArch: core: 14, cta: 4 initialized @(5,0)
GPGPU-Sim uArch: core:  0, cta: 4 initialized @(5,0)
GPGPU-Sim uArch: core:  1, cta: 5 initialized @(6,0)
GPGPU-Sim uArch: core:  2, cta: 5 initialized @(6,0)
GPGPU-Sim uArch: core:  3, cta: 5 initialized @(6,0)
GPGPU-Sim uArch: core:  4, cta: 5 initialized @(6,0)
GPGPU-Sim uArch: core:  5, cta: 5 initialized @(6,0)
GPGPU-Sim uArch: core:  6, cta: 5 initialized @(6,0)
GPGPU-Sim uArch: core:  7, cta: 5 initialized @(6,0)
GPGPU-Sim uArch: core:  8, cta: 5 initialized @(6,0)
GPGPU-Sim uArch: core:  9, cta: 5 initialized @(6,0)
GPGPU-Sim uArch: core: 10, cta: 5 initialized @(6,0)
GPGPU-Sim uArch: core: 11, cta: 5 initialized @(6,0)
GPGPU-Sim uArch: core: 12, cta: 5 initialized @(6,0)
GPGPU-Sim uArch: core: 13, cta: 5 initialized @(6,0)
GPGPU-Sim uArch: core: 14, cta: 5 initialized @(6,0)
GPGPU-Sim uArch: core:  0, cta: 5 initialized @(6,0)
GPGPU-Sim PTX: 100000 instructions simulated : ctaid=(52,0,0) tid=(191,0,0)
GPGPU-Sim uArch: cycles simulated: 500  inst.: 92000 (ipc=184.0) sim_rate=92000 (inst/sec) elapsed = 0:0:00:01 / Tue Apr 16 16:55:29 2019
GPGPU-Sim PTX: 200000 instructions simulated : ctaid=(56,0,0) tid=(159,0,0)
GPGPU-Sim uArch: cycles simulated: 1000  inst.: 239393 (ipc=239.4) sim_rate=119696 (inst/sec) elapsed = 0:0:00:02 / Tue Apr 16 16:55:30 2019
GPGPU-Sim PTX: 300000 instructions simulated : ctaid=(44,0,0) tid=(253,0,0)
GPGPU-Sim uArch: Shader 0 finished CTA #0 (1267,0), 5 CTAs running
GPGPU-Sim uArch: core:  0, cta: 0 initialized @(1268,0)
GPGPU-Sim uArch: Shader 0 finished CTA #4 (1279,0), 5 CTAs running
GPGPU-Sim uArch: Shader 0 finished CTA #5 (1279,0), 4 CTAs running
GPGPU-Sim uArch: core:  0, cta: 4 initialized @(1280,0)
GPGPU-Sim uArch: core:  0, cta: 5 initialized @(1281,0)
GPGPU-Sim uArch: Shader 3 finished CTA #4 (1285,0), 5 CTAs running
GPGPU-Sim uArch: Shader 3 finished CTA #5 (1285,0), 4 CTAs running
GPGPU-Sim uArch: Shader 3 finished CTA #0 (1285,0), 3 CTAs running
GPGPU-Sim uArch: Shader 3 finished CTA #1 (1285,0), 2 CTAs running
GPGPU-Sim uArch: Shader 3 finished CTA #2 (1285,0), 1 CTAs running
GPGPU-Sim uArch: core:  3, cta: 0 initialized @(1286,0)
GPGPU-Sim uArch: core:  3, cta: 1 initialized @(1287,0)
GPGPU-Sim uArch: Shader 0 finished CTA #1 (1287,0), 5 CTAs running
GPGPU-Sim uArch: Shader 0 finished CTA #2 (1287,0), 4 CTAs running
GPGPU-Sim uArch: Shader 0 finished CTA #3 (1287,0), 3 CTAs running
GPGPU-Sim uArch: core:  0, cta: 1 initialized @(1288,0)
GPGPU-Sim uArch: core:  3, cta: 2 initialized @(1288,0)
GPGPU-Sim uArch: core:  0, cta: 2 initialized @(1289,0)
GPGPU-Sim uArch: core:  3, cta: 4 initialized @(1289,0)
GPGPU-Sim uArch: core:  0, cta: 3 initialized @(1290,0)
GPGPU-Sim uArch: core:  3, cta: 5 initialized @(1290,0)
GPGPU-Sim uArch: Shader 4 finished CTA #5 (1291,0), 5 CTAs running
GPGPU-Sim uArch: Shader 4 finished CTA #0 (1291,0), 4 CTAs running
GPGPU-Sim uArch: Shader 4 finished CTA #1 (1291,0), 3 CTAs running
GPGPU-Sim uArch: Shader 4 finished CTA #2 (1291,0), 2 CTAs running
GPGPU-Sim uArch: core:  4, cta: 0 initialized @(1292,0)
GPGPU-Sim uArch: core:  4, cta: 1 initialized @(1293,0)
GPGPU-Sim uArch: core:  4, cta: 2 initialized @(1294,0)
GPGPU-Sim uArch: core:  4, cta: 5 initialized @(1295,0)
GPGPU-Sim uArch: Shader 2 finished CTA #5 (1297,0), 5 CTAs running
GPGPU-Sim uArch: Shader 2 finished CTA #0 (1297,0), 4 CTAs running
GPGPU-Sim uArch: Shader 2 finished CTA #1 (1297,0), 3 CTAs running
GPGPU-Sim uArch: Shader 2 finished CTA #2 (1297,0), 2 CTAs running
GPGPU-Sim uArch: core:  2, cta: 0 initialized @(1298,0)
GPGPU-Sim uArch: core:  2, cta: 1 initialized @(1299,0)
GPGPU-Sim uArch: Shader 8 finished CTA #0 (1299,0), 5 CTAs running
GPGPU-Sim uArch: core:  8, cta: 0 initialized @(1300,0)
GPGPU-Sim uArch: core:  2, cta: 2 initialized @(1300,0)
GPGPU-Sim uArch: core:  2, cta: 5 initialized @(1301,0)
GPGPU-Sim uArch: Shader 5 finished CTA #5 (1303,0), 5 CTAs running
GPGPU-Sim uArch: Shader 5 finished CTA #0 (1303,0), 4 CTAs running
GPGPU-Sim uArch: Shader 5 finished CTA #1 (1303,0), 3 CTAs running
GPGPU-Sim uArch: Shader 5 finished CTA #2 (1303,0), 2 CTAs running
GPGPU-Sim uArch: core:  5, cta: 0 initialized @(1304,0)
GPGPU-Sim uArch: core:  5, cta: 1 initialized @(1305,0)
GPGPU-Sim uArch: Shader 11 finished CTA #0 (1305,0), 5 CTAs running
GPGPU-Sim uArch: core: 11, cta: 0 initialized @(1306,0)
GPGPU-Sim uArch: core:  5, cta: 2 initialized @(1306,0)
GPGPU-Sim uArch: core:  5, cta: 5 initialized @(1307,0)
GPGPU-Sim uArch: Shader 1 finished CTA #5 (1308,0), 5 CTAs running
GPGPU-Sim uArch: core:  1, cta: 5 initialized @(1309,0)
GPGPU-Sim uArch: Shader 1 finished CTA #1 (1309,0), 5 CTAs running
GPGPU-Sim uArch: Shader 1 finished CTA #2 (1309,0), 4 CTAs running
GPGPU-Sim uArch: core:  1, cta: 1 initialized @(1310,0)
GPGPU-Sim uArch: Shader 3 finished CTA #3 (1310,0), 5 CTAs running
GPGPU-Sim uArch: core:  3, cta: 3 initialized @(1311,0)
GPGPU-Sim uArch: core:  1, cta: 2 initialized @(1311,0)
GPGPU-Sim uArch: Shader 6 finished CTA #0 (1315,0), 5 CTAs running
GPGPU-Sim uArch: Shader 6 finished CTA #1 (1315,0), 4 CTAs running
GPGPU-Sim uArch: Shader 6 finished CTA #2 (1315,0), 3 CTAs running
GPGPU-Sim uArch: Shader 6 finished CTA #3 (1315,0), 2 CTAs running
GPGPU-Sim uArch: core:  6, cta: 0 initialized @(1316,0)
GPGPU-Sim uArch: Shader 4 finished CTA #3 (1316,0), 5 CTAs running
GPGPU-Sim uArch: Shader 4 finished CTA #4 (1316,0), 4 CTAs running
GPGPU-Sim uArch: core:  4, cta: 3 initialized @(1317,0)
GPGPU-Sim uArch: core:  6, cta: 1 initialized @(1317,0)
GPGPU-Sim uArch: core:  4, cta: 4 initialized @(1318,0)
GPGPU-Sim uArch: core:  6, cta: 2 initialized @(1318,0)
GPGPU-Sim uArch: core:  6, cta: 3 initialized @(1319,0)
GPGPU-Sim uArch: Shader 8 finished CTA #5 (1321,0), 5 CTAs running
GPGPU-Sim uArch: core:  8, cta: 5 initialized @(1322,0)
GPGPU-Sim uArch: Shader 2 finished CTA #3 (1322,0), 5 CTAs running
GPGPU-Sim uArch: Shader 2 finished CTA #4 (1322,0), 4 CTAs running
GPGPU-Sim uArch: core:  2, cta: 3 initialized @(1323,0)
GPGPU-Sim uArch: Shader 11 finished CTA #4 (1323,0), 5 CTAs running
GPGPU-Sim uArch: core: 11, cta: 4 initialized @(1324,0)
GPGPU-Sim uArch: core:  2, cta: 4 initialized @(1324,0)
GPGPU-Sim uArch: Shader 5 finished CTA #3 (1328,0), 5 CTAs running
GPGPU-Sim uArch: Shader 5 finished CTA #4 (1328,0), 4 CTAs running
GPGPU-Sim uArch: core:  5, cta: 3 initialized @(1329,0)
GPGPU-Sim uArch: Shader 8 finished CTA #1 (1329,0), 5 CTAs running
GPGPU-Sim uArch: Shader 8 finished CTA #2 (1329,0), 4 CTAs running
GPGPU-Sim uArch: Shader 8 finished CTA #3 (1329,0), 3 CTAs running
GPGPU-Sim uArch: Shader 8 finished CTA #4 (1329,0), 2 CTAs running
GPGPU-Sim uArch: core:  8, cta: 1 initialized @(1330,0)
GPGPU-Sim uArch: core:  5, cta: 4 initialized @(1330,0)
GPGPU-Sim uArch: core:  8, cta: 2 initialized @(1331,0)
GPGPU-Sim uArch: core:  8, cta: 3 initialized @(1332,0)
GPGPU-Sim uArch: core:  8, cta: 4 initialized @(1333,0)
GPGPU-Sim uArch: Shader 7 finished CTA #5 (1333,0), 5 CTAs running
GPGPU-Sim uArch: Shader 7 finished CTA #0 (1333,0), 4 CTAs running
GPGPU-Sim uArch: Shader 7 finished CTA #1 (1333,0), 3 CTAs running
GPGPU-Sim uArch: Shader 7 finished CTA #2 (1333,0), 2 CTAs running
GPGPU-Sim uArch: core:  7, cta: 0 initialized @(1334,0)
GPGPU-Sim uArch: Shader 1 finished CTA #3 (1334,0), 5 CTAs running
GPGPU-Sim uArch: Shader 1 finished CTA #4 (1334,0), 4 CTAs running
GPGPU-Sim uArch: core:  1, cta: 3 initialized @(1335,0)
GPGPU-Sim uArch: core:  7, cta: 1 initialized @(1335,0)
GPGPU-Sim uArch: Shader 11 finished CTA #1 (1335,0), 5 CTAs running
GPGPU-Sim uArch: Shader 11 finished CTA #2 (1335,0), 4 CTAs running
GPGPU-Sim uArch: Shader 11 finished CTA #3 (1335,0), 3 CTAs running
GPGPU-Sim uArch: core: 11, cta: 1 initialized @(1336,0)
GPGPU-Sim uArch: core:  1, cta: 4 initialized @(1336,0)
GPGPU-Sim uArch: core:  7, cta: 2 initialized @(1336,0)
GPGPU-Sim uArch: core: 11, cta: 2 initialized @(1337,0)
GPGPU-Sim uArch: core:  7, cta: 5 initialized @(1337,0)
GPGPU-Sim uArch: core: 11, cta: 3 initialized @(1338,0)
GPGPU-Sim uArch: Shader 13 finished CTA #0 (1339,0), 5 CTAs running
GPGPU-Sim uArch: Shader 13 finished CTA #1 (1339,0), 4 CTAs running
GPGPU-Sim uArch: Shader 13 finished CTA #2 (1339,0), 3 CTAs running
GPGPU-Sim uArch: Shader 13 finished CTA #3 (1339,0), 2 CTAs running
GPGPU-Sim uArch: core: 13, cta: 0 initialized @(1340,0)
GPGPU-Sim uArch: core: 13, cta: 1 initialized @(1341,0)
GPGPU-Sim uArch: core: 13, cta: 2 initialized @(1342,0)
GPGPU-Sim uArch: core: 13, cta: 3 initialized @(1343,0)
GPGPU-Sim uArch: Shader 11 finished CTA #5 (1343,0), 5 CTAs running
GPGPU-Sim uArch: core: 11, cta: 5 initialized @(1344,0)
GPGPU-Sim uArch: Shader 10 finished CTA #5 (1345,0), 5 CTAs running
GPGPU-Sim uArch: Shader 10 finished CTA #0 (1345,0), 4 CTAs running
GPGPU-Sim uArch: Shader 10 finished CTA #1 (1345,0), 3 CTAs running
GPGPU-Sim uArch: Shader 10 finished CTA #2 (1345,0), 2 CTAs running
GPGPU-Sim uArch: core: 10, cta: 0 initialized @(1346,0)
GPGPU-Sim uArch: core: 10, cta: 1 initialized @(1347,0)
GPGPU-Sim uArch: core: 10, cta: 2 initialized @(1348,0)
GPGPU-Sim uArch: Shader 6 finished CTA #4 (1348,0), 5 CTAs running
GPGPU-Sim uArch: Shader 6 finished CTA #5 (1348,0), 4 CTAs running
GPGPU-Sim uArch: core:  6, cta: 4 initialized @(1349,0)
GPGPU-Sim uArch: core: 10, cta: 5 initialized @(1349,0)
GPGPU-Sim uArch: core:  6, cta: 5 initialized @(1350,0)
GPGPU-Sim uArch: Shader 12 finished CTA #0 (1351,0), 5 CTAs running
GPGPU-Sim uArch: Shader 12 finished CTA #1 (1351,0), 4 CTAs running
GPGPU-Sim uArch: Shader 14 finished CTA #5 (1351,0), 5 CTAs running
GPGPU-Sim uArch: Shader 14 finished CTA #0 (1351,0), 4 CTAs running
GPGPU-Sim uArch: Shader 14 finished CTA #1 (1351,0), 3 CTAs running
GPGPU-Sim uArch: Shader 14 finished CTA #2 (1351,0), 2 CTAs running
GPGPU-Sim uArch: core: 12, cta: 0 initialized @(1352,0)
GPGPU-Sim uArch: core: 14, cta: 0 initialized @(1352,0)
GPGPU-Sim uArch: core: 12, cta: 1 initialized @(1353,0)
GPGPU-Sim uArch: core: 14, cta: 1 initialized @(1353,0)
GPGPU-Sim uArch: core: 14, cta: 2 initialized @(1354,0)
GPGPU-Sim uArch: core: 14, cta: 5 initialized @(1355,0)
GPGPU-Sim uArch: Shader 9 finished CTA #5 (1357,0), 5 CTAs running
GPGPU-Sim uArch: Shader 9 finished CTA #0 (1357,0), 4 CTAs running
GPGPU-Sim uArch: Shader 9 finished CTA #1 (1357,0), 3 CTAs running
GPGPU-Sim uArch: Shader 9 finished CTA #2 (1357,0), 2 CTAs running
GPGPU-Sim uArch: core:  9, cta: 0 initialized @(1358,0)
GPGPU-Sim uArch: Shader 7 finished CTA #3 (1358,0), 5 CTAs running
GPGPU-Sim uArch: Shader 7 finished CTA #4 (1358,0), 4 CTAs running
GPGPU-Sim uArch: core:  7, cta: 3 initialized @(1359,0)
GPGPU-Sim uArch: core:  9, cta: 1 initialized @(1359,0)
GPGPU-Sim uArch: core:  7, cta: 4 initialized @(1360,0)
GPGPU-Sim uArch: core:  9, cta: 2 initialized @(1360,0)
GPGPU-Sim uArch: core:  9, cta: 5 initialized @(1361,0)
GPGPU-Sim uArch: Shader 12 finished CTA #4 (1363,0), 5 CTAs running
GPGPU-Sim uArch: Shader 12 finished CTA #5 (1363,0), 4 CTAs running
GPGPU-Sim uArch: core: 12, cta: 4 initialized @(1364,0)
GPGPU-Sim uArch: core: 12, cta: 5 initialized @(1365,0)
GPGPU-Sim uArch: Shader 10 finished CTA #3 (1370,0), 5 CTAs running
GPGPU-Sim uArch: Shader 10 finished CTA #4 (1370,0), 4 CTAs running
GPGPU-Sim uArch: core: 10, cta: 3 initialized @(1371,0)
GPGPU-Sim uArch: core: 10, cta: 4 initialized @(1372,0)
GPGPU-Sim uArch: Shader 13 finished CTA #4 (1372,0), 5 CTAs running
GPGPU-Sim uArch: Shader 13 finished CTA #5 (1372,0), 4 CTAs running
GPGPU-Sim uArch: core: 13, cta: 4 initialized @(1373,0)
GPGPU-Sim uArch: core: 13, cta: 5 initialized @(1374,0)
GPGPU-Sim uArch: Shader 14 finished CTA #3 (1376,0), 5 CTAs running
GPGPU-Sim uArch: Shader 14 finished CTA #4 (1376,0), 4 CTAs running
GPGPU-Sim uArch: core: 14, cta: 3 initialized @(1377,0)
GPGPU-Sim uArch: core: 14, cta: 4 initialized @(1378,0)
GPGPU-Sim uArch: Shader 12 finished CTA #2 (1379,0), 5 CTAs running
GPGPU-Sim uArch: Shader 12 finished CTA #3 (1379,0), 4 CTAs running
GPGPU-Sim uArch: core: 12, cta: 2 initialized @(1380,0)
GPGPU-Sim uArch: core: 12, cta: 3 initialized @(1381,0)
GPGPU-Sim uArch: Shader 9 finished CTA #3 (1382,0), 5 CTAs running
GPGPU-Sim uArch: Shader 9 finished CTA #4 (1382,0), 4 CTAs running
GPGPU-Sim uArch: core:  9, cta: 3 initialized @(1383,0)
GPGPU-Sim uArch: core:  9, cta: 4 initialized @(1384,0)
GPGPU-Sim PTX: 400000 instructions simulated : ctaid=(159,0,0) tid=(182,0,0)
GPGPU-Sim PTX: 500000 instructions simulated : ctaid=(114,0,0) tid=(85,0,0)
GPGPU-Sim uArch: cycles simulated: 1500  inst.: 459048 (ipc=306.0) sim_rate=153016 (inst/sec) elapsed = 0:0:00:03 / Tue Apr 16 16:55:31 2019
GPGPU-Sim PTX: 600000 instructions simulated : ctaid=(175,0,0) tid=(245,0,0)
GPGPU-Sim uArch: Shader 1 finished CTA #5 (1763,0), 5 CTAs running
GPGPU-Sim uArch: core:  1, cta: 5 initialized @(1764,0)
GPGPU-Sim uArch: Shader 0 finished CTA #0 (1769,0), 5 CTAs running
GPGPU-Sim uArch: core:  0, cta: 0 initialized @(1770,0)
GPGPU-Sim uArch: Shader 3 finished CTA #0 (1778,0), 5 CTAs running
GPGPU-Sim uArch: core:  3, cta: 0 initialized @(1779,0)
GPGPU-Sim uArch: Shader 4 finished CTA #0 (1788,0), 5 CTAs running
GPGPU-Sim uArch: core:  4, cta: 0 initialized @(1789,0)
GPGPU-Sim uArch: Shader 2 finished CTA #0 (1792,0), 5 CTAs running
GPGPU-Sim uArch: core:  2, cta: 0 initialized @(1793,0)
GPGPU-Sim uArch: Shader 1 finished CTA #1 (1801,0), 5 CTAs running
GPGPU-Sim uArch: Shader 1 finished CTA #2 (1801,0), 4 CTAs running
GPGPU-Sim uArch: core:  1, cta: 1 initialized @(1802,0)
GPGPU-Sim uArch: Shader 3 finished CTA #2 (1802,0), 5 CTAs running
GPGPU-Sim uArch: Shader 4 finished CTA #1 (1802,0), 5 CTAs running
GPGPU-Sim uArch: core:  3, cta: 2 initialized @(1803,0)
GPGPU-Sim uArch: core:  4, cta: 1 initialized @(1803,0)
GPGPU-Sim uArch: core:  1, cta: 2 initialized @(1803,0)
GPGPU-Sim uArch: Shader 5 finished CTA #1 (1807,0), 5 CTAs running
GPGPU-Sim uArch: core:  5, cta: 1 initialized @(1808,0)
GPGPU-Sim uArch: Shader 11 finished CTA #0 (1811,0), 5 CTAs running
GPGPU-Sim uArch: core: 11, cta: 0 initialized @(1812,0)
GPGPU-Sim uArch: Shader 8 finished CTA #0 (1812,0), 5 CTAs running
GPGPU-Sim uArch: core:  8, cta: 0 initialized @(1813,0)
GPGPU-Sim uArch: Shader 6 finished CTA #0 (1818,0), 5 CTAs running
GPGPU-Sim uArch: Shader 6 finished CTA #1 (1818,0), 4 CTAs running
GPGPU-Sim uArch: core:  6, cta: 0 initialized @(1819,0)
GPGPU-Sim uArch: core:  6, cta: 1 initialized @(1820,0)
GPGPU-Sim uArch: Shader 0 finished CTA #4 (1829,0), 5 CTAs running
GPGPU-Sim uArch: core:  0, cta: 4 initialized @(1830,0)
GPGPU-Sim uArch: Shader 13 finished CTA #0 (1833,0), 5 CTAs running
GPGPU-Sim uArch: core: 13, cta: 0 initialized @(1834,0)
GPGPU-Sim uArch: Shader 5 finished CTA #0 (1836,0), 5 CTAs running
GPGPU-Sim uArch: core:  5, cta: 0 initialized @(1837,0)
GPGPU-Sim uArch: Shader 2 finished CTA #2 (1844,0), 5 CTAs running
GPGPU-Sim uArch: core:  2, cta: 2 initialized @(1845,0)
GPGPU-Sim uArch: Shader 7 finished CTA #0 (1846,0), 5 CTAs running
GPGPU-Sim uArch: core:  7, cta: 0 initialized @(1847,0)
GPGPU-Sim uArch: Shader 14 finished CTA #0 (1848,0), 5 CTAs running
GPGPU-Sim uArch: core: 14, cta: 0 initialized @(1849,0)
GPGPU-Sim uArch: Shader 3 finished CTA #1 (1852,0), 5 CTAs running
GPGPU-Sim uArch: core:  3, cta: 1 initialized @(1853,0)
GPGPU-Sim uArch: Shader 3 finished CTA #4 (1860,0), 5 CTAs running
GPGPU-Sim uArch: core:  3, cta: 4 initialized @(1861,0)
GPGPU-Sim uArch: Shader 0 finished CTA #5 (1863,0), 5 CTAs running
GPGPU-Sim uArch: core:  0, cta: 5 initialized @(1864,0)
GPGPU-Sim uArch: Shader 2 finished CTA #1 (1864,0), 5 CTAs running
GPGPU-Sim uArch: core:  2, cta: 1 initialized @(1865,0)
GPGPU-Sim uArch: Shader 11 finished CTA #4 (1868,0), 5 CTAs running
GPGPU-Sim uArch: core: 11, cta: 4 initialized @(1869,0)
GPGPU-Sim uArch: Shader 12 finished CTA #0 (1870,0), 5 CTAs running
GPGPU-Sim uArch: core: 12, cta: 0 initialized @(1871,0)
GPGPU-Sim uArch: Shader 0 finished CTA #1 (1871,0), 5 CTAs running
GPGPU-Sim uArch: core:  0, cta: 1 initialized @(1872,0)
GPGPU-Sim uArch: Shader 5 finished CTA #2 (1872,0), 5 CTAs running
GPGPU-Sim uArch: core:  5, cta: 2 initialized @(1873,0)
GPGPU-Sim uArch: Shader 6 finished CTA #2 (1873,0), 5 CTAs running
GPGPU-Sim uArch: Shader 6 finished CTA #3 (1873,0), 4 CTAs running
GPGPU-Sim uArch: core:  6, cta: 2 initialized @(1874,0)
GPGPU-Sim uArch: core:  6, cta: 3 initialized @(1875,0)
GPGPU-Sim uArch: Shader 10 finished CTA #0 (1875,0), 5 CTAs running
GPGPU-Sim uArch: core: 10, cta: 0 initialized @(1876,0)
GPGPU-Sim uArch: Shader 5 finished CTA #5 (1876,0), 5 CTAs running
GPGPU-Sim uArch: Shader 8 finished CTA #5 (1876,0), 5 CTAs running
GPGPU-Sim uArch: core:  5, cta: 5 initialized @(1877,0)
GPGPU-Sim uArch: core:  8, cta: 5 initialized @(1877,0)
GPGPU-Sim uArch: Shader 2 finished CTA #5 (1881,0), 5 CTAs running
GPGPU-Sim uArch: core:  2, cta: 5 initialized @(1882,0)
GPGPU-Sim uArch: Shader 4 finished CTA #5 (1882,0), 5 CTAs running
GPGPU-Sim uArch: core:  4, cta: 5 initialized @(1883,0)
GPGPU-Sim uArch: Shader 1 finished CTA #3 (1885,0), 5 CTAs running
GPGPU-Sim uArch: core:  1, cta: 3 initialized @(1886,0)
GPGPU-Sim uArch: Shader 14 finished CTA #1 (1888,0), 5 CTAs running
GPGPU-Sim uArch: core: 14, cta: 1 initialized @(1889,0)
GPGPU-Sim uArch: Shader 4 finished CTA #2 (1895,0), 5 CTAs running
GPGPU-Sim PTX: 700000 instructions simulated : ctaid=(197,0,0) tid=(109,0,0)
GPGPU-Sim uArch: core:  4, cta: 2 initialized @(1896,0)
GPGPU-Sim uArch: Shader 7 finished CTA #1 (1898,0), 5 CTAs running
GPGPU-Sim uArch: Shader 7 finished CTA #2 (1898,0), 4 CTAs running
GPGPU-Sim uArch: core:  7, cta: 1 initialized @(1899,0)
GPGPU-Sim uArch: Shader 10 finished CTA #1 (1899,0), 5 CTAs running
GPGPU-Sim uArch: Shader 13 finished CTA #1 (1899,0), 5 CTAs running
GPGPU-Sim uArch: Shader 13 finished CTA #2 (1899,0), 4 CTAs running
GPGPU-Sim uArch: Shader 13 finished CTA #3 (1899,0), 3 CTAs running
GPGPU-Sim uArch: core: 10, cta: 1 initialized @(1900,0)
GPGPU-Sim uArch: core: 13, cta: 1 initialized @(1900,0)
GPGPU-Sim uArch: core:  7, cta: 2 initialized @(1900,0)
GPGPU-Sim uArch: core: 13, cta: 2 initialized @(1901,0)
GPGPU-Sim uArch: core: 13, cta: 3 initialized @(1902,0)
GPGPU-Sim uArch: Shader 9 finished CTA #0 (1909,0), 5 CTAs running
GPGPU-Sim uArch: core:  9, cta: 0 initialized @(1910,0)
GPGPU-Sim uArch: Shader 8 finished CTA #1 (1912,0), 5 CTAs running
GPGPU-Sim uArch: Shader 8 finished CTA #2 (1912,0), 4 CTAs running
GPGPU-Sim uArch: core:  8, cta: 1 initialized @(1913,0)
GPGPU-Sim uArch: core:  8, cta: 2 initialized @(1914,0)
GPGPU-Sim uArch: Shader 9 finished CTA #1 (1932,0), 5 CTAs running
GPGPU-Sim uArch: Shader 9 finished CTA #2 (1932,0), 4 CTAs running
GPGPU-Sim uArch: Shader 14 finished CTA #5 (1932,0), 5 CTAs running
GPGPU-Sim uArch: core:  9, cta: 1 initialized @(1933,0)
GPGPU-Sim uArch: core: 14, cta: 5 initialized @(1933,0)
GPGPU-Sim uArch: core:  9, cta: 2 initialized @(1934,0)
GPGPU-Sim uArch: Shader 10 finished CTA #2 (1934,0), 5 CTAs running
GPGPU-Sim uArch: core: 10, cta: 2 initialized @(1935,0)
GPGPU-Sim uArch: Shader 4 finished CTA #3 (1939,0), 5 CTAs running
GPGPU-Sim uArch: Shader 11 finished CTA #3 (1939,0), 5 CTAs running
GPGPU-Sim uArch: core: 11, cta: 3 initialized @(1940,0)
GPGPU-Sim uArch: core:  4, cta: 3 initialized @(1940,0)
GPGPU-Sim uArch: Shader 9 finished CTA #5 (1940,0), 5 CTAs running
GPGPU-Sim uArch: core:  9, cta: 5 initialized @(1941,0)
GPGPU-Sim uArch: Shader 0 finished CTA #2 (1944,0), 5 CTAs running
GPGPU-Sim uArch: core:  0, cta: 2 initialized @(1945,0)
GPGPU-Sim uArch: Shader 7 finished CTA #5 (1948,0), 5 CTAs running
GPGPU-Sim uArch: core:  7, cta: 5 initialized @(1949,0)
GPGPU-Sim uArch: Shader 2 finished CTA #3 (1949,0), 5 CTAs running
GPGPU-Sim uArch: core:  2, cta: 3 initialized @(1950,0)
GPGPU-Sim uArch: Shader 12 finished CTA #1 (1951,0), 5 CTAs running
GPGPU-Sim uArch: core: 12, cta: 1 initialized @(1952,0)
GPGPU-Sim uArch: Shader 11 finished CTA #1 (1959,0), 5 CTAs running
GPGPU-Sim uArch: Shader 11 finished CTA #2 (1959,0), 4 CTAs running
GPGPU-Sim uArch: core: 11, cta: 1 initialized @(1960,0)
GPGPU-Sim uArch: core: 11, cta: 2 initialized @(1961,0)
GPGPU-Sim uArch: Shader 12 finished CTA #4 (1967,0), 5 CTAs running
GPGPU-Sim uArch: Shader 12 finished CTA #5 (1967,0), 4 CTAs running
GPGPU-Sim uArch: core: 12, cta: 4 initialized @(1968,0)
GPGPU-Sim uArch: core: 12, cta: 5 initialized @(1969,0)
GPGPU-Sim uArch: Shader 7 finished CTA #3 (1972,0), 5 CTAs running
GPGPU-Sim uArch: core:  7, cta: 3 initialized @(1973,0)
GPGPU-Sim uArch: Shader 10 finished CTA #5 (1982,0), 5 CTAs running
GPGPU-Sim uArch: core: 10, cta: 5 initialized @(1983,0)
GPGPU-Sim uArch: Shader 1 finished CTA #4 (1983,0), 5 CTAs running
GPGPU-Sim uArch: Shader 4 finished CTA #4 (1983,0), 5 CTAs running
GPGPU-Sim uArch: core:  1, cta: 4 initialized @(1984,0)
GPGPU-Sim uArch: core:  4, cta: 4 initialized @(1984,0)
GPGPU-Sim uArch: Shader 3 finished CTA #5 (1984,0), 5 CTAs running
GPGPU-Sim uArch: Shader 14 finished CTA #2 (1984,0), 5 CTAs running
GPGPU-Sim uArch: Shader 14 finished CTA #3 (1984,0), 4 CTAs running
GPGPU-Sim uArch: core: 14, cta: 2 initialized @(1985,0)
GPGPU-Sim uArch: core:  3, cta: 5 initialized @(1985,0)
GPGPU-Sim uArch: core: 14, cta: 3 initialized @(1986,0)
GPGPU-Sim uArch: Shader 0 finished CTA #3 (1987,0), 5 CTAs running
GPGPU-Sim uArch: core:  0, cta: 3 initialized @(1988,0)
GPGPU-Sim uArch: Shader 8 finished CTA #3 (1993,0), 5 CTAs running
GPGPU-Sim uArch: core:  8, cta: 3 initialized @(1994,0)
GPGPU-Sim uArch: Shader 6 finished CTA #4 (1995,0), 5 CTAs running
GPGPU-Sim uArch: core:  6, cta: 4 initialized @(1996,0)
GPGPU-Sim uArch: Shader 2 finished CTA #4 (1996,0), 5 CTAs running
GPGPU-Sim uArch: core:  2, cta: 4 initialized @(1997,0)
GPGPU-Sim uArch: cycles simulated: 2000  inst.: 725041 (ipc=362.5) sim_rate=181260 (inst/sec) elapsed = 0:0:00:04 / Tue Apr 16 16:55:32 2019
GPGPU-Sim uArch: Shader 5 finished CTA #3 (2004,0), 5 CTAs running
GPGPU-Sim uArch: Shader 5 finished CTA #4 (2004,0), 4 CTAs running
GPGPU-Sim uArch: core:  5, cta: 3 initialized @(2005,0)
GPGPU-Sim uArch: Shader 9 finished CTA #3 (2005,0), 5 CTAs running
GPGPU-Sim uArch: core:  9, cta: 3 initialized @(2006,0)
GPGPU-Sim uArch: core:  5, cta: 4 initialized @(2006,0)
GPGPU-Sim uArch: Shader 10 finished CTA #3 (2006,0), 5 CTAs running
GPGPU-Sim uArch: core: 10, cta: 3 initialized @(2007,0)
GPGPU-Sim uArch: Shader 3 finished CTA #3 (2008,0), 5 CTAs running
GPGPU-Sim uArch: Shader 13 finished CTA #4 (2015,0), 5 CTAs running
GPGPU-Sim PTX: 800000 instructions simulated : ctaid=(195,0,0) tid=(75,0,0)
GPGPU-Sim uArch: Shader 11 finished CTA #5 (2018,0), 5 CTAs running
GPGPU-Sim uArch: Shader 7 finished CTA #4 (2020,0), 5 CTAs running
GPGPU-Sim uArch: Shader 12 finished CTA #2 (2027,0), 5 CTAs running
GPGPU-Sim uArch: Shader 12 finished CTA #3 (2027,0), 4 CTAs running
GPGPU-Sim uArch: Shader 8 finished CTA #4 (2034,0), 5 CTAs running
GPGPU-Sim uArch: Shader 6 finished CTA #5 (2039,0), 5 CTAs running
GPGPU-Sim uArch: Shader 13 finished CTA #5 (2048,0), 4 CTAs running
GPGPU-Sim uArch: Shader 10 finished CTA #4 (2050,0), 5 CTAs running
GPGPU-Sim uArch: Shader 9 finished CTA #4 (2053,0), 5 CTAs running
GPGPU-Sim uArch: Shader 14 finished CTA #4 (2076,0), 5 CTAs running
GPGPU-Sim PTX: 900000 instructions simulated : ctaid=(248,0,0) tid=(43,0,0)
GPGPU-Sim uArch: Shader 1 finished CTA #5 (2185,0), 5 CTAs running
GPGPU-Sim uArch: Shader 0 finished CTA #0 (2205,0), 5 CTAs running
GPGPU-Sim uArch: Shader 5 finished CTA #1 (2245,0), 5 CTAs running
GPGPU-Sim uArch: Shader 3 finished CTA #0 (2246,0), 4 CTAs running
GPGPU-Sim uArch: Shader 11 finished CTA #0 (2247,0), 4 CTAs running
GPGPU-Sim uArch: Shader 4 finished CTA #0 (2254,0), 5 CTAs running
GPGPU-Sim uArch: Shader 1 finished CTA #1 (2259,0), 4 CTAs running
GPGPU-Sim uArch: Shader 2 finished CTA #0 (2262,0), 5 CTAs running
GPGPU-Sim uArch: Shader 8 finished CTA #0 (2263,0), 4 CTAs running
GPGPU-Sim uArch: Shader 3 finished CTA #2 (2305,0), 3 CTAs running
GPGPU-Sim uArch: Shader 1 finished CTA #2 (2308,0), 3 CTAs running
GPGPU-Sim uArch: Shader 5 finished CTA #0 (2310,0), 4 CTAs running
GPGPU-Sim uArch: Shader 6 finished CTA #0 (2312,0), 4 CTAs running
GPGPU-Sim uArch: Shader 13 finished CTA #0 (2313,0), 3 CTAs running
GPGPU-Sim uArch: Shader 4 finished CTA #1 (2316,0), 4 CTAs running
GPGPU-Sim uArch: Shader 6 finished CTA #1 (2316,0), 3 CTAs running
GPGPU-Sim uArch: Shader 12 finished CTA #0 (2317,0), 3 CTAs running
GPGPU-Sim uArch: Shader 14 finished CTA #0 (2322,0), 4 CTAs running
GPGPU-Sim uArch: Shader 7 finished CTA #0 (2326,0), 4 CTAs running
GPGPU-Sim uArch: Shader 1 finished CTA #3 (2338,0), 2 CTAs running
GPGPU-Sim uArch: Shader 11 finished CTA #4 (2341,0), 3 CTAs running
GPGPU-Sim uArch: Shader 10 finished CTA #0 (2356,0), 4 CTAs running
GPGPU-Sim uArch: Shader 0 finished CTA #4 (2358,0), 4 CTAs running
GPGPU-Sim uArch: Shader 2 finished CTA #2 (2358,0), 4 CTAs running
GPGPU-Sim uArch: Shader 3 finished CTA #1 (2369,0), 2 CTAs running
GPGPU-Sim uArch: Shader 3 finished CTA #4 (2373,0), 1 CTAs running
GPGPU-Sim uArch: Shader 8 finished CTA #5 (2377,0), 3 CTAs running
GPGPU-Sim uArch: Shader 14 finished CTA #1 (2382,0), 3 CTAs running
GPGPU-Sim uArch: Shader 0 finished CTA #5 (2383,0), 3 CTAs running
GPGPU-Sim uArch: Shader 13 finished CTA #1 (2383,0), 2 CTAs running
GPGPU-Sim uArch: Shader 5 finished CTA #2 (2386,0), 3 CTAs running
GPGPU-Sim uArch: Shader 0 finished CTA #1 (2387,0), 2 CTAs running
GPGPU-Sim uArch: Shader 2 finished CTA #1 (2390,0), 3 CTAs running
GPGPU-Sim uArch: Shader 9 finished CTA #0 (2391,0), 4 CTAs running
GPGPU-Sim uArch: Shader 6 finished CTA #2 (2400,0), 2 CTAs running
GPGPU-Sim uArch: Shader 1 finished CTA #4 (2402,0), 1 CTAs running
GPGPU-Sim uArch: Shader 13 finished CTA #2 (2404,0), 1 CTAs running
GPGPU-Sim uArch: Shader 4 finished CTA #5 (2406,0), 3 CTAs running
GPGPU-Sim uArch: Shader 6 finished CTA #3 (2406,0), 1 CTAs running
GPGPU-Sim uArch: Shader 8 finished CTA #1 (2406,0), 2 CTAs running
GPGPU-Sim uArch: Shader 7 finished CTA #1 (2407,0), 3 CTAs running
GPGPU-Sim uArch: Shader 10 finished CTA #1 (2409,0), 3 CTAs running
GPGPU-Sim uArch: Shader 8 finished CTA #2 (2417,0), 1 CTAs running
GPGPU-Sim uArch: Shader 7 finished CTA #2 (2418,0), 2 CTAs running
GPGPU-Sim uArch: Shader 4 finished CTA #2 (2419,0), 2 CTAs running
GPGPU-Sim uArch: Shader 5 finished CTA #5 (2423,0), 2 CTAs running
GPGPU-Sim uArch: Shader 12 finished CTA #1 (2429,0), 2 CTAs running
GPGPU-Sim uArch: Shader 13 finished CTA #3 (2429,0), 0 CTAs running
GPGPU-Sim uArch: Shader 13 empty (release kernel 1 '_Z6KernelP4NodePiPbS2_S1_S2_i').
GPGPU-Sim uArch: Shader 2 finished CTA #5 (2431,0), 2 CTAs running
GPGPU-Sim uArch: Shader 3 finished CTA #5 (2436,0), 0 CTAs running
GPGPU-Sim uArch: Shader 3 empty (release kernel 1 '_Z6KernelP4NodePiPbS2_S1_S2_i').
GPGPU-Sim uArch: Shader 12 finished CTA #4 (2439,0), 1 CTAs running
GPGPU-Sim uArch: Shader 0 finished CTA #2 (2443,0), 1 CTAs running
GPGPU-Sim uArch: Shader 10 finished CTA #2 (2443,0), 2 CTAs running
GPGPU-Sim uArch: Shader 11 finished CTA #3 (2448,0), 2 CTAs running
GPGPU-Sim uArch: Shader 14 finished CTA #5 (2449,0), 2 CTAs running
GPGPU-Sim uArch: Shader 4 finished CTA #3 (2451,0), 1 CTAs running
GPGPU-Sim uArch: Shader 11 finished CTA #1 (2453,0), 1 CTAs running
GPGPU-Sim uArch: Shader 6 finished CTA #4 (2455,0), 0 CTAs running
GPGPU-Sim uArch: Shader 6 empty (release kernel 1 '_Z6KernelP4NodePiPbS2_S1_S2_i').
GPGPU-Sim uArch: Shader 9 finished CTA #1 (2459,0), 3 CTAs running
GPGPU-Sim uArch: Shader 2 finished CTA #3 (2460,0), 1 CTAs running
GPGPU-Sim uArch: Shader 11 finished CTA #2 (2461,0), 0 CTAs running
GPGPU-Sim uArch: Shader 11 empty (release kernel 1 '_Z6KernelP4NodePiPbS2_S1_S2_i').
GPGPU-Sim uArch: Shader 8 finished CTA #3 (2462,0), 0 CTAs running
GPGPU-Sim uArch: Shader 8 empty (release kernel 1 '_Z6KernelP4NodePiPbS2_S1_S2_i').
GPGPU-Sim uArch: Shader 12 finished CTA #5 (2467,0), 0 CTAs running
GPGPU-Sim uArch: Shader 12 empty (release kernel 1 '_Z6KernelP4NodePiPbS2_S1_S2_i').
GPGPU-Sim uArch: Shader 9 finished CTA #2 (2470,0), 2 CTAs running
GPGPU-Sim uArch: Shader 0 finished CTA #3 (2471,0), 0 CTAs running
GPGPU-Sim uArch: Shader 0 empty (release kernel 1 '_Z6KernelP4NodePiPbS2_S1_S2_i').
GPGPU-Sim uArch: Shader 14 finished CTA #2 (2471,0), 1 CTAs running
GPGPU-Sim uArch: Shader 7 finished CTA #5 (2473,0), 1 CTAs running
GPGPU-Sim uArch: Shader 9 finished CTA #5 (2477,0), 1 CTAs running
GPGPU-Sim uArch: Shader 4 finished CTA #4 (2481,0), 0 CTAs running
GPGPU-Sim uArch: Shader 4 empty (release kernel 1 '_Z6KernelP4NodePiPbS2_S1_S2_i').
GPGPU-Sim uArch: Shader 7 finished CTA #3 (2482,0), 0 CTAs running
GPGPU-Sim uArch: Shader 7 empty (release kernel 1 '_Z6KernelP4NodePiPbS2_S1_S2_i').
GPGPU-Sim uArch: Shader 14 finished CTA #3 (2484,0), 0 CTAs running
GPGPU-Sim uArch: Shader 14 empty (release kernel 1 '_Z6KernelP4NodePiPbS2_S1_S2_i').
GPGPU-Sim uArch: Shader 2 finished CTA #4 (2485,0), 0 CTAs running
GPGPU-Sim uArch: Shader 2 empty (release kernel 1 '_Z6KernelP4NodePiPbS2_S1_S2_i').
GPGPU-Sim uArch: Shader 5 finished CTA #3 (2491,0), 1 CTAs running
GPGPU-Sim uArch: Shader 5 finished CTA #4 (2498,0), 0 CTAs running
GPGPU-Sim uArch: Shader 5 empty (release kernel 1 '_Z6KernelP4NodePiPbS2_S1_S2_i').
GPGPU-Sim uArch: cycles simulated: 2500  inst.: 916693 (ipc=366.7) sim_rate=183338 (inst/sec) elapsed = 0:0:00:05 / Tue Apr 16 16:55:33 2019
GPGPU-Sim uArch: Shader 10 finished CTA #3 (2505,0), 1 CTAs running
GPGPU-Sim uArch: Shader 10 finished CTA #5 (2507,0), 0 CTAs running
GPGPU-Sim uArch: Shader 10 empty (release kernel 1 '_Z6KernelP4NodePiPbS2_S1_S2_i').
GPGPU-Sim uArch: Shader 9 finished CTA #3 (2521,0), 0 CTAs running
GPGPU-Sim uArch: Shader 9 empty (release kernel 1 '_Z6KernelP4NodePiPbS2_S1_S2_i').
GPGPU-Sim uArch: Shader 1 finished CTA #0 (5947,0), 0 CTAs running
GPGPU-Sim uArch: Shader 1 empty (release kernel 1 '_Z6KernelP4NodePiPbS2_S1_S2_i').
GPGPU-Sim uArch: GPU detected kernel '_Z6KernelP4NodePiPbS2_S1_S2_i' finished on shader 1.
kernel_name = _Z6KernelP4NodePiPbS2_S1_S2_i 
kernel_launch_uid = 1 
gpu_sim_cycle = 5948
gpu_sim_insn = 917736
gpu_ipc =     154.2932
gpu_tot_sim_cycle = 5948
gpu_tot_sim_insn = 917736
gpu_tot_ipc =     154.2932
gpu_tot_issued_cta = 0
gpu_stall_dramfull = 291
gpu_stall_icnt2sh    = 207
gpu_total_sim_rate=183547

========= Core cache stats =========
L1I_cache:
	L1I_total_cache_accesses = 19521
	L1I_total_cache_misses = 962
	L1I_total_cache_miss_rate = 0.0493
	L1I_total_cache_pending_hits = 0
	L1I_total_cache_reservation_fails = 6682
L1D_cache:
	L1D_cache_core[0]: Access = 144, Miss = 36, Miss_rate = 0.250, Pending_hits = 108, Reservation_fails = 0
	L1D_cache_core[1]: Access = 196, Miss = 68, Miss_rate = 0.347, Pending_hits = 96, Reservation_fails = 0
	L1D_cache_core[2]: Access = 144, Miss = 36, Miss_rate = 0.250, Pending_hits = 108, Reservation_fails = 0
	L1D_cache_core[3]: Access = 136, Miss = 34, Miss_rate = 0.250, Pending_hits = 102, Reservation_fails = 0
	L1D_cache_core[4]: Access = 144, Miss = 36, Miss_rate = 0.250, Pending_hits = 108, Reservation_fails = 0
	L1D_cache_core[5]: Access = 144, Miss = 36, Miss_rate = 0.250, Pending_hits = 108, Reservation_fails = 0
	L1D_cache_core[6]: Access = 136, Miss = 34, Miss_rate = 0.250, Pending_hits = 102, Reservation_fails = 0
	L1D_cache_core[7]: Access = 136, Miss = 34, Miss_rate = 0.250, Pending_hits = 102, Reservation_fails = 0
	L1D_cache_core[8]: Access = 136, Miss = 34, Miss_rate = 0.250, Pending_hits = 102, Reservation_fails = 0
	L1D_cache_core[9]: Access = 136, Miss = 34, Miss_rate = 0.250, Pending_hits = 102, Reservation_fails = 0
	L1D_cache_core[10]: Access = 136, Miss = 34, Miss_rate = 0.250, Pending_hits = 102, Reservation_fails = 0
	L1D_cache_core[11]: Access = 136, Miss = 34, Miss_rate = 0.250, Pending_hits = 102, Reservation_fails = 0
	L1D_cache_core[12]: Access = 128, Miss = 32, Miss_rate = 0.250, Pending_hits = 96, Reservation_fails = 0
	L1D_cache_core[13]: Access = 128, Miss = 32, Miss_rate = 0.250, Pending_hits = 96, Reservation_fails = 0
	L1D_cache_core[14]: Access = 136, Miss = 34, Miss_rate = 0.250, Pending_hits = 102, Reservation_fails = 0
	L1D_total_cache_accesses = 2116
	L1D_total_cache_misses = 548
	L1D_total_cache_miss_rate = 0.2590
	L1D_total_cache_pending_hits = 1536
	L1D_total_cache_reservation_fails = 0
	L1D_cache_data_port_util = 0.001
	L1D_cache_fill_port_util = 0.013
L1C_cache:
	L1C_total_cache_accesses = 4115
	L1C_total_cache_misses = 480
	L1C_total_cache_miss_rate = 0.1166
	L1C_total_cache_pending_hits = 0
	L1C_total_cache_reservation_fails = 3411
L1T_cache:
	L1T_total_cache_accesses = 0
	L1T_total_cache_misses = 0
	L1T_total_cache_pending_hits = 0
	L1T_total_cache_reservation_fails = 0

Total_core_cache_stats:
	Total_core_cache_stats_breakdown[GLOBAL_ACC_R][HIT] = 31
	Total_core_cache_stats_breakdown[GLOBAL_ACC_R][HIT_RESERVED] = 1536
	Total_core_cache_stats_breakdown[GLOBAL_ACC_R][MISS] = 523
	Total_core_cache_stats_breakdown[CONST_ACC_R][HIT] = 3635
	Total_core_cache_stats_breakdown[CONST_ACC_R][MISS] = 480
	Total_core_cache_stats_breakdown[CONST_ACC_R][RESERVATION_FAIL] = 3411
	Total_core_cache_stats_breakdown[GLOBAL_ACC_W][HIT] = 1
	Total_core_cache_stats_breakdown[GLOBAL_ACC_W][MISS] = 25
	Total_core_cache_stats_breakdown[INST_ACC_R][HIT] = 18559
	Total_core_cache_stats_breakdown[INST_ACC_R][MISS] = 962
	Total_core_cache_stats_breakdown[INST_ACC_R][RESERVATION_FAIL] = 6682
Shader 0 warp_id issue ditsribution:
warp_id:
0, 1, 2, 3, 4, 5, 6, 7, 8, 9, 10, 11, 12, 13, 14, 15, 16, 17, 18, 19, 20, 21, 22, 23, 24, 25, 26, 27, 28, 29, 30, 31, 32, 33, 34, 35, 36, 37, 38, 39, 40, 41, 42, 43, 44, 45, 46, 47, 
distro:
45, 45, 45, 45, 45, 45, 45, 45, 45, 45, 45, 45, 45, 45, 45, 45, 45, 45, 45, 45, 45, 45, 45, 45, 45, 45, 45, 45, 45, 45, 45, 45, 45, 45, 45, 45, 45, 45, 45, 45, 45, 45, 45, 45, 45, 45, 45, 45, 
gpgpu_n_tot_thrd_icount = 990816
gpgpu_n_tot_w_icount = 30963
gpgpu_n_stall_shd_mem = 3411
gpgpu_n_mem_read_local = 0
gpgpu_n_mem_write_local = 0
gpgpu_n_mem_read_global = 523
gpgpu_n_mem_write_global = 26
gpgpu_n_mem_texture = 0
gpgpu_n_mem_const = 15
gpgpu_n_load_insn  = 65578
gpgpu_n_store_insn = 26
gpgpu_n_shmem_insn = 0
gpgpu_n_tex_insn = 0
gpgpu_n_const_mem_insn = 0
gpgpu_n_param_mem_insn = 131091
gpgpu_n_shmem_bkconflict = 0
gpgpu_n_cache_bkconflict = 0
gpgpu_n_intrawarp_mshr_merge = 0
gpgpu_n_cmem_portconflict = 3411
gpgpu_stall_shd_mem[c_mem][bk_conf] = 3411
gpgpu_stall_shd_mem[c_mem][mshr_rc] = 0
gpgpu_stall_shd_mem[c_mem][icnt_rc] = 0
gpgpu_stall_shd_mem[c_mem][data_port_stall] = 0
gpgpu_stall_shd_mem[t_mem][mshr_rc] = 0
gpgpu_stall_shd_mem[t_mem][icnt_rc] = 0
gpgpu_stall_shd_mem[t_mem][data_port_stall] = 0
gpgpu_stall_shd_mem[s_mem][bk_conf] = 0
gpgpu_stall_shd_mem[gl_mem][bk_conf] = 0
gpgpu_stall_shd_mem[gl_mem][coal_stall] = 0
gpgpu_stall_shd_mem[gl_mem][data_port_stall] = 0
gpgpu_stall_shd_mem[g_mem_ld][mshr_rc] = 0
gpgpu_stall_shd_mem[g_mem_ld][icnt_rc] = 0
gpgpu_stall_shd_mem[g_mem_ld][wb_icnt_rc] = 0
gpgpu_stall_shd_mem[g_mem_ld][wb_rsrv_fail] = 0
gpgpu_stall_shd_mem[g_mem_st][mshr_rc] = 0
gpgpu_stall_shd_mem[g_mem_st][icnt_rc] = 0
gpgpu_stall_shd_mem[g_mem_st][wb_icnt_rc] = 0
gpgpu_stall_shd_mem[g_mem_st][wb_rsrv_fail] = 0
gpgpu_stall_shd_mem[l_mem_ld][mshr_rc] = 0
gpgpu_stall_shd_mem[l_mem_ld][icnt_rc] = 0
gpgpu_stall_shd_mem[l_mem_ld][wb_icnt_rc] = 0
gpgpu_stall_shd_mem[l_mem_ld][wb_rsrv_fail] = 0
gpgpu_stall_shd_mem[l_mem_st][mshr_rc] = 0
gpgpu_stall_shd_mem[l_mem_st][icnt_rc] = 0
gpgpu_stall_shd_mem[l_mem_ld][wb_icnt_rc] = 0
gpgpu_stall_shd_mem[l_mem_ld][wb_rsrv_fail] = 0
gpu_reg_bank_conflict_stalls = 0
Warp Occupancy Distribution:
Stall:7237	W0_Idle:18628	W0_Scoreboard:24374	W1:243	W2:0	W3:0	W4:0	W5:0	W6:0	W7:0	W8:0	W9:0	W10:0	W11:0	W12:0	W13:0	W14:0	W15:0	W16:0	W17:0	W18:0	W19:0	W20:0	W21:0	W22:0	W23:0	W24:0	W25:0	W26:0	W27:0	W28:0	W29:0	W30:0	W31:0	W32:30720
traffic_breakdown_coretomem[CONST_ACC_R] = 120 {8:15,}
traffic_breakdown_coretomem[GLOBAL_ACC_R] = 4184 {8:523,}
traffic_breakdown_coretomem[GLOBAL_ACC_W] = 1040 {40:26,}
traffic_breakdown_coretomem[INST_ACC_R] = 256 {8:32,}
traffic_breakdown_memtocore[CONST_ACC_R] = 1080 {72:15,}
traffic_breakdown_memtocore[GLOBAL_ACC_R] = 71128 {136:523,}
traffic_breakdown_memtocore[GLOBAL_ACC_W] = 208 {8:26,}
traffic_breakdown_memtocore[INST_ACC_R] = 4352 {136:32,}
maxmrqlatency = 29 
maxdqlatency = 0 
maxmflatency = 316 
averagemflatency = 264 
max_icnt2mem_latency = 36 
max_icnt2sh_latency = 5947 
mrq_lat_table:365 	38 	63 	61 	21 	0 	0 	0 	0 	0 	0 	0 	0 	0 	0 	0 	0 	0 	0 	0 	0 	0 	0 	0 	0 	0 	0 	0 	0 	0 	0 	0 	
dq_lat_table:0 	0 	0 	0 	0 	0 	0 	0 	0 	0 	0 	0 	0 	0 	0 	0 	0 	0 	0 	0 	0 	0 	0 	0 	0 	0 	0 	0 	0 	0 	0 	0 	
mf_lat_table:0 	0 	0 	0 	0 	0 	0 	29 	535 	0 	0 	0 	0 	0 	0 	0 	0 	0 	0 	0 	0 	0 	0 	0 	0 	0 	0 	0 	0 	0 	0 	0 	
icnt2mem_lat_table:0 	0 	0 	585 	8 	3 	0 	0 	0 	0 	0 	0 	0 	0 	0 	0 	0 	0 	0 	0 	0 	0 	0 	0 	
icnt2sh_lat_table:0 	0 	0 	339 	187 	12 	0 	0 	0 	0 	2 	9 	15 	0 	0 	0 	0 	0 	0 	0 	0 	0 	0 	0 	
mf_lat_pw_table:0 	0 	0 	0 	0 	0 	0 	5 	5 	0 	0 	0 	0 	0 	0 	0 	0 	0 	0 	0 	0 	0 	0 	0 	0 	0 	0 	0 	0 	0 	0 	0 	
maximum concurrent accesses to same row:
dram[0]:         1         0         0         0         0         0         0         0         0         0         0         0         0         0         0         0 
dram[1]:         0         0         0         0         0         0         0         0         0         0         0         0         0         0         0         0 
dram[2]:         0         0         0         0         0         0         0         0         0         0         0         0         0         0         0         0 
dram[3]:         0         0         0         0         0         0         0         0         0         0         0         0         0         0         0         0 
dram[4]:         0         0         0         0         0         0         0         0         0         0        22        22         0         0         0         0 
dram[5]:         0         0         0         0         0         0         0         0         0         0         0         0         0         0         0         0 
maximum service time to same row:
dram[0]:      1584         0      5929         0         0         0         0         0         0         0       954       915      1787      1779         0         0 
dram[1]:      1197         0         0         0         0         0         0         0         0         0       959       916      1797      1766         0      3990 
dram[2]:         0         0         0      3113         0      1632         0         0         0      4325       947       925      1787      1569         0         0 
dram[3]:         0         0         0      5122         0      4724         0         0         0         0       963       938      1800      1774         0         0 
dram[4]:         0      3916         0         0         0      5522         0         0         0         0      1272      2575      1763      1785      3182         0 
dram[5]:         0         0         0         0         0         0         0         0         0         0       919       944      1772      1797      5594         0 
average row accesses per activate:
dram[0]:  1.000000      -nan  2.000000      -nan      -nan      -nan      -nan      -nan      -nan      -nan 20.000000 22.000000 22.000000 22.000000      -nan      -nan 
dram[1]:  2.000000      -nan      -nan      -nan      -nan      -nan      -nan      -nan      -nan      -nan 20.000000 22.000000 24.000000 22.000000      -nan  3.000000 
dram[2]:      -nan      -nan      -nan  2.000000      -nan  1.000000      -nan      -nan      -nan  2.000000 20.000000 22.000000 22.000000 22.000000      -nan      -nan 
dram[3]:      -nan      -nan      -nan  2.000000      -nan  2.000000      -nan      -nan      -nan      -nan 20.000000 22.000000 22.000000 20.000000      -nan      -nan 
dram[4]:      -nan  2.000000      -nan      -nan      -nan  2.000000      -nan      -nan      -nan      -nan  8.333333 12.000000 22.000000 20.000000  2.000000      -nan 
dram[5]:      -nan      -nan      -nan      -nan      -nan      -nan      -nan      -nan      -nan      -nan 22.000000 22.000000 22.000000 20.000000  1.000000      -nan 
average row locality = 548/43 = 12.744186
number of total memory accesses made:
dram[0]:         0         0         0         0         0         0         0         0         0         0         0         0         0         0         0         0 
dram[1]:         0         0         0         0         0         0         0         0         0         0         0         0         0         0         0         0 
dram[2]:         0         0         0         0         0         0         0         0         0         0         0         0         0         0         0         0 
dram[3]:         0         0         0         0         0         0         0         0         0         0         0         0         0         0         0         0 
dram[4]:         0         0         0         0         0         0         0         0         0         0         0         0         0         0         0         0 
dram[5]:         0         0         0         0         0         0         0         0         0         0         0         0         0         0         0         0 
total accesses: 0
min_bank_accesses = 0!
min_chip_accesses = 0!
number of total read accesses:
dram[0]:         4         0         1         0         0         0         0         0         0         0        20        22        22        22         0         0 
dram[1]:         2         0         0         0         0         0         0         0         0         0        20        22        24        22         0         3 
dram[2]:         0         0         0         1         0         1         0         0         0         1        20        22        22        21         0         0 
dram[3]:         0         0         0         1         0         1         0         0         0         0        20        22        22        20         0         0 
dram[4]:         0         1         0         0         0         1         0         0         0         0        24        23        22        20         2         0 
dram[5]:         0         0         0         0         0         0         0         0         0         0        22        22        22        20         1         0 
total reads: 538
min_bank_accesses = 0!
chip skew: 93/86 = 1.08
number of total write accesses:
dram[0]:         0         0         1         0         0         0         0         0         0         0         0         0         0         0         0         0 
dram[1]:         0         0         0         0         0         0         0         0         0         0         0         0         0         0         0         0 
dram[2]:         0         0         0         1         0         0         0         0         0         1         0         0         0         1         0         0 
dram[3]:         0         0         0         1         0         1         0         0         0         0         0         0         0         0         0         0 
dram[4]:         0         1         0         0         0         1         0         0         0         0         1         1         0         0         0         0 
dram[5]:         0         0         0         0         0         0         0         0         0         0         0         0         0         0         0         0 
total reads: 10
min_bank_accesses = 0!
min_chip_accesses = 0!
average mf latency per bank:
dram[0]:       1055    none         125    none      none      none      none      none      none      none         267       270       275       268    none      none  
dram[1]:          0    none      none      none      none      none      none      none      none      none         273       270       269       270    none         262
dram[2]:     none      none      none         126    none         268    none      none      none         126       268       266       266       252    none      none  
dram[3]:     none      none      none         126    none         126    none      none      none      none         274       284       277       271    none      none  
dram[4]:     none         126    none      none      none         126    none      none      none      none         297       256       267       274       263    none  
dram[5]:     none      none      none      none      none      none      none      none      none      none         264       269       267       273       268    none  
maximum mf latency per bank:
dram[0]:        283         0       251         0         0         0         0         0         0         0       283       287       281       291         0         0
dram[1]:          0         0         0         0         0         0         0         0         0         0       287       292       305       316         0       268
dram[2]:          0         0         0       252         0       268         0         0         0       252       288       278       291       276         0         0
dram[3]:          0         0         0       252         0       252         0         0         0         0       277       301       284       308         0         0
dram[4]:          0       252         0         0         0       252         0         0         0         0       277       286       279       301       268         0
dram[5]:          0         0         0         0         0         0         0         0         0         0       277       284       296       302       268         0

Number of Memory Banks Accessed per Memory Operation per Warp (from 0):
0	0	0	0	0	0	0	0	0	0	0	0	0	0	0	0	0	0	0	0	0	0	0	0	0	0	0	0	0	0	0	0	0	0	0	0	0	0	0	0	0	0	0	0	0	0	0	0	0	0	0	0	0	0	0	0	0	0	0	0	0	0	0	0	0	0	0	0	0	0	0	0	0	0	0	0	0	0	0	0	0	0	0	0	0	0	0	0	0	0	0	0	0	0	0	0	
Average # of Memory Banks Accessed per Memory Operation per Warp=-nan

position of mrq chosen
0	0	0	0	0	0	0	0	0	0	0	0	0	0	0	0	

average position of mrq chosen = -nan
Memory Partition 0: 
Cache L2_bank_000:
MSHR contents
MSHR: tag=0x80234400, atomic=0 1 entries : 0x7f1e33b8fbb0 :  mf: uid= 35855, sid01:w00, part=0, addr=0x80234440, load , size=32, unknown  status = IN_PARTITION_DRAM (5945), 

Cache L2_bank_001:
MSHR contents

In Dram Latency Queue (total = 0): 
DRAM[0]: 16 bks, busW=4 BL=8 CL=12, tRRD=2 tCCD=6, tRCD=12 tRAS=28 tRP=12 tRC=40
n_cmd=7851 n_nop=7656 n_act=9 n_pre=3 n_req=92 n_rd=182 n_write=1 bw_util=0.04662
n_activity=971 dram_eff=0.3769
bk0: 8a 7750i bk1: 0a 7847i bk2: 2a 7827i bk3: 0a 7848i bk4: 0a 7849i bk5: 0a 7850i bk6: 0a 7852i bk7: 0a 7852i bk8: 0a 7853i bk9: 0a 7853i bk10: 40a 7736i bk11: 44a 7671i bk12: 44a 7734i bk13: 44a 7674i bk14: 0a 7849i bk15: 0a 7850i 
dram_util_bins: 0 0 0 0 0 0 0 0 0 0
dram_eff_bins: 0 0 0 0 0 0 0 0 0 0
mrqq: max=4 avg=0.0412686
Memory Partition 1: 
Cache L2_bank_002:
MSHR contents

Cache L2_bank_003:
MSHR contents

In Dram Latency Queue (total = 0): 
DRAM[1]: 16 bks, busW=4 BL=8 CL=12, tRRD=2 tCCD=6, tRCD=12 tRAS=28 tRP=12 tRC=40
n_cmd=7851 n_nop=7659 n_act=6 n_pre=0 n_req=93 n_rd=186 n_write=0 bw_util=0.04738
n_activity=876 dram_eff=0.4247
bk0: 4a 7827i bk1: 0a 7847i bk2: 0a 7849i bk3: 0a 7849i bk4: 0a 7850i bk5: 0a 7850i bk6: 0a 7850i bk7: 0a 7852i bk8: 0a 7854i bk9: 0a 7854i bk10: 40a 7714i bk11: 44a 7672i bk12: 48a 7705i bk13: 44a 7652i bk14: 0a 7850i bk15: 6a 7825i 
dram_util_bins: 0 0 0 0 0 0 0 0 0 0
dram_eff_bins: 0 0 0 0 0 0 0 0 0 0
mrqq: max=4 avg=0.041396
Memory Partition 2: 
Cache L2_bank_004:
MSHR contents

Cache L2_bank_005:
MSHR contents

In Dram Latency Queue (total = 0): 
DRAM[2]: 16 bks, busW=4 BL=8 CL=12, tRRD=2 tCCD=6, tRCD=12 tRAS=28 tRP=12 tRC=40
n_cmd=7851 n_nop=7665 n_act=7 n_pre=0 n_req=91 n_rd=176 n_write=3 bw_util=0.0456
n_activity=884 dram_eff=0.405
bk0: 0a 7850i bk1: 0a 7851i bk2: 0a 7852i bk3: 2a 7829i bk4: 0a 7850i bk5: 2a 7834i bk6: 0a 7850i bk7: 0a 7852i bk8: 0a 7855i bk9: 2a 7832i bk10: 40a 7740i bk11: 44a 7700i bk12: 44a 7721i bk13: 42a 7702i bk14: 0a 7848i bk15: 0a 7848i 
dram_util_bins: 0 0 0 0 0 0 0 0 0 0
dram_eff_bins: 0 0 0 0 0 0 0 0 0 0
mrqq: max=1 avg=0.0175774
Memory Partition 3: 
Cache L2_bank_006:
MSHR contents

Cache L2_bank_007:
MSHR contents

In Dram Latency Queue (total = 0): 
DRAM[3]: 16 bks, busW=4 BL=8 CL=12, tRRD=2 tCCD=6, tRCD=12 tRAS=28 tRP=12 tRC=40
n_cmd=7851 n_nop=7671 n_act=6 n_pre=0 n_req=88 n_rd=172 n_write=2 bw_util=0.04433
n_activity=769 dram_eff=0.4525
bk0: 0a 7850i bk1: 0a 7851i bk2: 0a 7851i bk3: 2a 7830i bk4: 0a 7851i bk5: 2a 7828i bk6: 0a 7850i bk7: 0a 7852i bk8: 0a 7853i bk9: 0a 7854i bk10: 40a 7724i bk11: 44a 7628i bk12: 44a 7720i bk13: 40a 7667i bk14: 0a 7847i bk15: 0a 7847i 
dram_util_bins: 0 0 0 0 0 0 0 0 0 0
dram_eff_bins: 0 0 0 0 0 0 0 0 0 0
mrqq: max=3 avg=0.042415
Memory Partition 4: 
Cache L2_bank_008:
MSHR contents

Cache L2_bank_009:
MSHR contents

In Dram Latency Queue (total = 0): 
DRAM[4]: 16 bks, busW=4 BL=8 CL=12, tRRD=2 tCCD=6, tRCD=12 tRAS=28 tRP=12 tRC=40
n_cmd=7851 n_nop=7648 n_act=10 n_pre=3 n_req=97 n_rd=186 n_write=4 bw_util=0.0484
n_activity=934 dram_eff=0.4069
bk0: 0a 7846i bk1: 2a 7827i bk2: 0a 7850i bk3: 0a 7850i bk4: 0a 7851i bk5: 2a 7831i bk6: 0a 7853i bk7: 0a 7854i bk8: 0a 7856i bk9: 0a 7856i bk10: 48a 7668i bk11: 46a 7634i bk12: 44a 7711i bk13: 40a 7630i bk14: 4a 7826i bk15: 0a 7845i 
dram_util_bins: 0 0 0 0 0 0 0 0 0 0
dram_eff_bins: 0 0 0 0 0 0 0 0 0 0
mrqq: max=4 avg=0.0531143
Memory Partition 5: 
Cache L2_bank_010:
MSHR contents

Cache L2_bank_011:
MSHR contents

In Dram Latency Queue (total = 0): 
DRAM[5]: 16 bks, busW=4 BL=8 CL=12, tRRD=2 tCCD=6, tRCD=12 tRAS=28 tRP=12 tRC=40
n_cmd=7851 n_nop=7672 n_act=5 n_pre=0 n_req=87 n_rd=174 n_write=0 bw_util=0.04433
n_activity=744 dram_eff=0.4677
bk0: 0a 7847i bk1: 0a 7849i bk2: 0a 7849i bk3: 0a 7850i bk4: 0a 7850i bk5: 0a 7851i bk6: 0a 7851i bk7: 0a 7854i bk8: 0a 7854i bk9: 0a 7854i bk10: 44a 7723i bk11: 44a 7646i bk12: 44a 7720i bk13: 40a 7699i bk14: 2a 7832i bk15: 0a 7847i 
dram_util_bins: 0 0 0 0 0 0 0 0 0 0
dram_eff_bins: 0 0 0 0 0 0 0 0 0 0
mrqq: max=5 avg=0.043434

========= L2 cache stats =========
L2_cache_bank[0]: Access = 77, Miss = 47, Miss_rate = 0.610, Pending_hits = 6, Reservation_fails = 227
L2_cache_bank[1]: Access = 44, Miss = 44, Miss_rate = 1.000, Pending_hits = 0, Reservation_fails = 0
L2_cache_bank[2]: Access = 61, Miss = 46, Miss_rate = 0.754, Pending_hits = 3, Reservation_fails = 115
L2_cache_bank[3]: Access = 47, Miss = 47, Miss_rate = 1.000, Pending_hits = 0, Reservation_fails = 0
L2_cache_bank[4]: Access = 42, Miss = 42, Miss_rate = 1.000, Pending_hits = 0, Reservation_fails = 0
L2_cache_bank[5]: Access = 46, Miss = 46, Miss_rate = 1.000, Pending_hits = 0, Reservation_fails = 0
L2_cache_bank[6]: Access = 45, Miss = 42, Miss_rate = 0.933, Pending_hits = 0, Reservation_fails = 0
L2_cache_bank[7]: Access = 46, Miss = 44, Miss_rate = 0.957, Pending_hits = 0, Reservation_fails = 0
L2_cache_bank[8]: Access = 56, Miss = 48, Miss_rate = 0.857, Pending_hits = 0, Reservation_fails = 0
L2_cache_bank[9]: Access = 45, Miss = 45, Miss_rate = 1.000, Pending_hits = 0, Reservation_fails = 0
L2_cache_bank[10]: Access = 45, Miss = 45, Miss_rate = 1.000, Pending_hits = 0, Reservation_fails = 0
L2_cache_bank[11]: Access = 42, Miss = 42, Miss_rate = 1.000, Pending_hits = 0, Reservation_fails = 0
L2_total_cache_accesses = 596
L2_total_cache_misses = 538
L2_total_cache_miss_rate = 0.9027
L2_total_cache_pending_hits = 9
L2_total_cache_reservation_fails = 342
L2_total_cache_breakdown:
	L2_cache_stats_breakdown[GLOBAL_ACC_R][MISS] = 523
	L2_cache_stats_breakdown[CONST_ACC_R][HIT] = 11
	L2_cache_stats_breakdown[CONST_ACC_R][HIT_RESERVED] = 3
	L2_cache_stats_breakdown[CONST_ACC_R][MISS] = 1
	L2_cache_stats_breakdown[CONST_ACC_R][RESERVATION_FAIL] = 111
	L2_cache_stats_breakdown[GLOBAL_ACC_W][HIT] = 16
	L2_cache_stats_breakdown[GLOBAL_ACC_W][MISS] = 10
	L2_cache_stats_breakdown[INST_ACC_R][HIT] = 22
	L2_cache_stats_breakdown[INST_ACC_R][HIT_RESERVED] = 6
	L2_cache_stats_breakdown[INST_ACC_R][MISS] = 4
	L2_cache_stats_breakdown[INST_ACC_R][RESERVATION_FAIL] = 231
L2_cache_data_port_util = 0.002
L2_cache_fill_port_util = 0.030

icnt_total_pkts_mem_to_simt=2846
icnt_total_pkts_simt_to_mem=622
LD_mem_lat_dist  0 0 0 0 0 0 0 0 0 0 0 0 0 0 0 0 0 0 0 0 0 0 0 0 0 0 0
ST_mem_lat_dist  0 0 0 0 0 0 0 0 0 0 0 0 0 0 0 0 0 0 0 0 0 0 0 0 0 0 0
----------------------------Interconnect-DETAILS--------------------------------
Class 0:
Packet latency average = 10.1846
	minimum = 6
	maximum = 37
Network latency average = 9.63926
	minimum = 6
	maximum = 37
Slowest packet = 763
Flit latency average = 8.42013
	minimum = 6
	maximum = 34
Slowest flit = 14
Fragmentation average = 0
	minimum = 0
	maximum = 0
Injected packet rate average = 0.00742235
	minimum = 0.00588433 (at node 12)
	maximum = 0.0129455 (at node 15)
Accepted packet rate average = 0.00742235
	minimum = 0.00588433 (at node 12)
	maximum = 0.0129455 (at node 15)
Injected flit rate average = 0.0215946
	minimum = 0.00588433 (at node 12)
	maximum = 0.0576664 (at node 15)
Accepted flit rate average= 0.0215946
	minimum = 0.0070612 (at node 19)
	maximum = 0.0443847 (at node 1)
Injected packet length average = 2.9094
Accepted packet length average = 2.9094
Total in-flight flits = 0 (0 measured)
====== Overall Traffic Statistics ======
====== Traffic class 0 ======
Packet latency average = 10.1846 (1 samples)
	minimum = 6 (1 samples)
	maximum = 37 (1 samples)
Network latency average = 9.63926 (1 samples)
	minimum = 6 (1 samples)
	maximum = 37 (1 samples)
Flit latency average = 8.42013 (1 samples)
	minimum = 6 (1 samples)
	maximum = 34 (1 samples)
Fragmentation average = 0 (1 samples)
	minimum = 0 (1 samples)
	maximum = 0 (1 samples)
Injected packet rate average = 0.00742235 (1 samples)
	minimum = 0.00588433 (1 samples)
	maximum = 0.0129455 (1 samples)
Accepted packet rate average = 0.00742235 (1 samples)
	minimum = 0.00588433 (1 samples)
	maximum = 0.0129455 (1 samples)
Injected flit rate average = 0.0215946 (1 samples)
	minimum = 0.00588433 (1 samples)
	maximum = 0.0576664 (1 samples)
Accepted flit rate average = 0.0215946 (1 samples)
	minimum = 0.0070612 (1 samples)
	maximum = 0.0443847 (1 samples)
Injected packet size average = 2.9094 (1 samples)
Accepted packet size average = 2.9094 (1 samples)
Hops average = 1 (1 samples)
----------------------------END-of-Interconnect-DETAILS-------------------------


gpgpu_simulation_time = 0 days, 0 hrs, 0 min, 5 sec (5 sec)
[...]
traffic_breakdown_coretomem[INST_ACC_R] = 480 {8:60,}
traffic_breakdown_memtocore[CONST_ACC_R] = 1080 {72:15,}
traffic_breakdown_memtocore[GLOBAL_ACC_R] = 83063632 {136:610762,}
traffic_breakdown_memtocore[GLOBAL_ACC_W] = 3310944 {8:413868,}
traffic_breakdown_memtocore[INST_ACC_R] = 8160 {136:60,}
maxmrqlatency = 414 
maxdqlatency = 0 
maxmflatency = 1081 
averagemflatency = 340 
max_icnt2mem_latency = 777 
max_icnt2sh_latency = 761797 
mrq_lat_table:44354 	4239 	1240 	3758 	5494 	1073 	567 	303 	31 	0 	0 	0 	0 	0 	0 	0 	0 	0 	0 	0 	0 	0 	0 	0 	0 	0 	0 	0 	0 	0 	0 	0 	
dq_lat_table:0 	0 	0 	0 	0 	0 	0 	0 	0 	0 	0 	0 	0 	0 	0 	0 	0 	0 	0 	0 	0 	0 	0 	0 	0 	0 	0 	0 	0 	0 	0 	0 	
mf_lat_table:0 	0 	0 	0 	0 	0 	0 	253881 	688402 	82359 	3 	0 	0 	0 	0 	0 	0 	0 	0 	0 	0 	0 	0 	0 	0 	0 	0 	0 	0 	0 	0 	0 	
icnt2mem_lat_table:0 	0 	0 	122802 	89668 	142420 	307950 	222827 	138101 	937 	0 	0 	0 	0 	0 	0 	0 	0 	0 	0 	0 	0 	0 	0 	
icnt2sh_lat_table:0 	0 	0 	43571 	282983 	266123 	18043 	57 	0 	0 	2 	9 	35 	914 	8857 	17357 	43871 	99750 	170746 	72327 	0 	0 	0 	0 	
mf_lat_pw_table:0 	0 	0 	0 	0 	0 	0 	116 	1412 	0 	0 	0 	0 	0 	0 	0 	0 	0 	0 	0 	0 	0 	0 	0 	0 	0 	0 	0 	0 	0 	0 	0 	
maximum concurrent accesses to same row:
dram[0]:        29        34        21        25        27        26        32        32        39        37        31        24        36        35        34        35 
dram[1]:        24        31        44        58        22        18        30        30        25        40        27        30        32        33        39        34 
dram[2]:        28        28        34        33        32        31        32        32        28        32        31        24        34        36        45        55 
dram[3]:        25        28        58        46        34        32        26        28        26        24        24        22        31        34        34        35 
dram[4]:        30        30        29        31        25        34        32        32        33        33        29        24        32        35        32        33 
dram[5]:        31        35        35        32        20        26        27        28        28        26        26        25        32        33        32        32 
maximum service time to same row:
dram[0]:     59837     58365     43528     69325     62580     58506     48999     43700     61147     62585     50751     52796    101217     99131     97947     79179 
dram[1]:     69444     68608     73228     73064     72141     92263     59477     36877     54716     47347     54984     73728     91578     56678     78043     84097 
dram[2]:     54396     40441     58335     74039     60346     46854     56586     58070     47934     42295     47779     43572     76438     69670    134209    139038 
dram[3]:     55733     84442     56713     83293     98021     53702     60393     52734     50744     38512     42649     49850     75427     65442     63778     74688 
dram[4]:     67881     66853     65176     52214     63841     68494     62197     93936     57025     55141     38906     66000    115316     92870     76946     95559 
dram[5]:     52916     80588    111818     55809    116675     48937     63878     49887     62204     43532     52344     59520     54803    109197    139043    127178 
average row accesses per activate:
dram[0]:  3.508021  3.188341  3.029412  3.292793  4.126667  3.662857  3.552381  3.596244  4.766667  3.983871  3.224044  3.500000  4.500000  5.136364  7.792453  6.130435 
dram[1]:  3.669903  3.572770  3.324201  3.761421  3.179724  3.237624  3.379747  3.046512  3.329060  3.457547  3.553191  3.384211  3.898305  3.920000  5.805195  6.414286 
dram[2]:  2.991525  3.267281  3.823205  3.788360  3.720497  3.880239  3.781915  4.276836  3.824468  3.548077  3.104265  2.827309  4.477478  4.603961  5.551282  6.402985 
dram[3]:  3.373786  3.096000  4.289017  4.069767  4.057554  3.952096  4.444445  3.811518  3.620513  3.215768  3.027027  2.759336  4.345455  4.294643  5.717949  5.932433 
dram[4]:  4.256410  4.108974  3.837079  3.408867  3.791908  3.727273  3.793478  4.036810  4.058201  4.386364  3.269036  3.465517  3.957983  4.413462  7.362069  8.911111 
dram[5]:  3.544503  3.190476  3.119658  3.261062  3.350254  3.081340  4.074713  4.386905  3.492754  3.396476  3.297980  3.147619  4.290909  3.941667  6.246154  9.000000 
average row locality = 61059/16303 = 3.745262
number of total memory accesses made:
dram[0]:         0         0         0         0         0         0         0         0         0         0         0         0         0         0         0         0 
dram[1]:         0         0         0         0         0         0         0         0         0         0         0         0         0         0         0         0 
dram[2]:         0         0         0         0         0         0         0         0         0         0         0         0         0         0         0         0 
dram[3]:         0         0         0         0         0         0         0         0         0         0         0         0         0         0         0         0 
dram[4]:         0         0         0         0         0         0         0         0         0         0         0         0         0         0         0         0 
dram[5]:         0         0         0         0         0         0         0         0         0         0         0         0         0         0         0         0 
total accesses: 0
min_bank_accesses = 0!
min_chip_accesses = 0!
number of total read accesses:
dram[0]:       480       507       519       526       484       496       582       586       547       555       494       499       424       428       413       423 
dram[1]:       523       530       509       507       528       514       623       608       589       559       531       518       437       458       445       446 
dram[2]:       505       504       504       514       467       502       554       589       552       571       528       555       466       440       431       428 
dram[3]:       505       535       523       494       448       506       568       568       542       577       548       533       445       447       445       438 
dram[4]:       487       472       493       501       497       502       542       526       583       571       515       493       436       424       426       401 
dram[5]:       498       523       527       529       500       503       544       563       560       576       544       531       438       437       405       405 
total reads: 48472
bank skew: 623/401 = 1.55
chip skew: 8325/7869 = 1.06
number of total write accesses:
dram[0]:       176       204       202       205       135       145       164       180       168       186        96        89        26        24         0         0 
dram[1]:       233       231       219       234       162       140       178       178       190       174       137       125        23        32         2         3 
dram[2]:       201       205       188       202       132       146       157       168       167       167       127       149        31        25         2         1 
dram[3]:       190       239       219       206       116       154       152       160       164       198       124       132        33        34         1         1 
dram[4]:       177       169       190       191       159       154       156       132       184       201       129       110        35        35         1         0 
dram[5]:       179       214       203       208       160       141       165       174       163       195       109       130        34        36         1         0 
total reads: 12587
min_bank_accesses = 0!
chip skew: 2261/2000 = 1.13
average mf latency per bank:
dram[0]:       2611      2432      2650      2644      3147      2987      2774      2614      2578      2550      6109      6310     12228     12450     18638     18365
dram[1]:       2272      2322      2634      2639      2934      3104      2647      2728      2511      2627      5258      5930     12002     11532     17548     17818
dram[2]:       2459      2462      2749      2626      3264      3133      2853      2735      2716      2659      5521      5470     10960     12541     17362     18456
dram[3]:       2550      2237      2589      2765      3442      3055      2915      2833      2723      2470      5363      5587     11739     12053     17514     18145
dram[4]:       3440      2771      3731      2810      4128      3132      4101      3080      3409      2402     35863      6352     16245     13023     24764     19760
dram[5]:       2527      2481      2573      2709      2868      3120      2725      2796      2517      2504      5651      5740     11600     12374     18523     19598
maximum mf latency per bank:
dram[0]:        790       882       784       792       769       792       765       863       804       746       807       834       857       908       774       828
dram[1]:        833       874       832       893       833       834       783       892       785       800       902       771       791       770       767       817
dram[2]:        794       800       795       831       780       822       773       870       876       871       835       954       873       849       802       766
dram[3]:        843       863       802       774       769       827       761       891       889       871       831       932       786       977       787       979
dram[4]:       1063       818       975       868      1002       830      1029       843       948       796      1019       949      1081       872       980       783
dram[5]:        790       810       741       937       759       853       791       852       751       822       762       845       790       859       839       752

Number of Memory Banks Accessed per Memory Operation per Warp (from 0):
0	0	0	0	0	0	0	0	0	0	0	0	0	0	0	0	0	0	0	0	0	0	0	0	0	0	0	0	0	0	0	0	0	0	0	0	0	0	0	0	0	0	0	0	0	0	0	0	0	0	0	0	0	0	0	0	0	0	0	0	0	0	0	0	0	0	0	0	0	0	0	0	0	0	0	0	0	0	0	0	0	0	0	0	0	0	0	0	0	0	0	0	0	0	0	0	
Average # of Memory Banks Accessed per Memory Operation per Warp=-nan

position of mrq chosen
0	0	0	0	0	0	0	0	0	0	0	0	0	0	0	0	

average position of mrq chosen = -nan
Memory Partition 0: 
Cache L2_bank_000:
MSHR contents

Cache L2_bank_001:
MSHR contents

In Dram Latency Queue (total = 0): 
DRAM[0]: 16 bks, busW=4 BL=8 CL=12, tRRD=2 tCCD=6, tRCD=12 tRAS=28 tRP=12 tRC=40
n_cmd=1007304 n_nop=983211 n_act=2615 n_pre=2599 n_req=9963 n_rd=15926 n_write=2953 bw_util=0.03748
n_activity=161820 dram_eff=0.2333
bk0: 960a 997960i bk1: 1014a 996188i bk2: 1038a 996617i bk3: 1052a 995541i bk4: 968a 999433i bk5: 992a 997789i bk6: 1164a 995813i bk7: 1172a 995097i bk8: 1094a 997677i bk9: 1110a 996378i bk10: 988a 997787i bk11: 998a 998159i bk12: 848a 1001003i bk13: 856a 1001197i bk14: 826a 1003112i bk15: 846a 1002311i 
dram_util_bins: 0 0 0 0 0 0 0 0 0 0
dram_eff_bins: 0 0 0 0 0 0 0 0 0 0
mrqq: max=16 avg=0.0832599
Memory Partition 1: 
Cache L2_bank_002:
MSHR contents

Cache L2_bank_003:
MSHR contents

In Dram Latency Queue (total = 0): 
DRAM[1]: 16 bks, busW=4 BL=8 CL=12, tRRD=2 tCCD=6, tRCD=12 tRAS=28 tRP=12 tRC=40
n_cmd=1007304 n_nop=981415 n_act=2963 n_pre=2947 n_req=10586 n_rd=16650 n_write=3329 bw_util=0.03967
n_activity=175500 dram_eff=0.2277
bk0: 1046a 997025i bk1: 1060a 996780i bk2: 1018a 996448i bk3: 1014a 996464i bk4: 1056a 997105i bk5: 1028a 997927i bk6: 1246a 995723i bk7: 1216a 994955i bk8: 1178a 995979i bk9: 1118a 996691i bk10: 1062a 997885i bk11: 1036a 997645i bk12: 874a 1001545i bk13: 916a 1000629i bk14: 890a 1002880i bk15: 892a 1003249i 
dram_util_bins: 0 0 0 0 0 0 0 0 0 0
dram_eff_bins: 0 0 0 0 0 0 0 0 0 0
mrqq: max=16 avg=0.0526971
Memory Partition 2: 
Cache L2_bank_004:
MSHR contents

Cache L2_bank_005:
MSHR contents

In Dram Latency Queue (total = 0): 
DRAM[2]: 16 bks, busW=4 BL=8 CL=12, tRRD=2 tCCD=6, tRCD=12 tRAS=28 tRP=12 tRC=40
n_cmd=1007304 n_nop=982600 n_act=2729 n_pre=2713 n_req=10178 n_rd=16220 n_write=3042 bw_util=0.03824
n_activity=164802 dram_eff=0.2338
bk0: 1010a 996684i bk1: 1008a 996864i bk2: 1008a 997664i bk3: 1028a 996710i bk4: 934a 998952i bk5: 1004a 998031i bk6: 1108a 996442i bk7: 1178a 996190i bk8: 1104a 996775i bk9: 1142a 996052i bk10: 1056a 996965i bk11: 1110a 995415i bk12: 932a 1000375i bk13: 880a 1000951i bk14: 862a 1002602i bk15: 856a 1003194i 
dram_util_bins: 0 0 0 0 0 0 0 0 0 0
dram_eff_bins: 0 0 0 0 0 0 0 0 0 0
mrqq: max=16 avg=0.0846418
Memory Partition 3: 
Cache L2_bank_006:
MSHR contents

Cache L2_bank_007:
MSHR contents

In Dram Latency Queue (total = 0): 
DRAM[3]: 16 bks, busW=4 BL=8 CL=12, tRRD=2 tCCD=6, tRCD=12 tRAS=28 tRP=12 tRC=40
n_cmd=1007304 n_nop=982491 n_act=2733 n_pre=2717 n_req=10245 n_rd=16244 n_write=3119 bw_util=0.03845
n_activity=168044 dram_eff=0.2305
bk0: 1010a 997199i bk1: 1070a 995060i bk2: 1046a 997409i bk3: 988a 997588i bk4: 896a 999994i bk5: 1012a 998328i bk6: 1136a 997672i bk7: 1136a 997027i bk8: 1084a 997257i bk9: 1154a 995293i bk10: 1096a 997090i bk11: 1066a 995881i bk12: 890a 1000803i bk13: 894a 1001119i bk14: 890a 1002765i bk15: 876a 1003223i 
dram_util_bins: 0 0 0 0 0 0 0 0 0 0
dram_eff_bins: 0 0 0 0 0 0 0 0 0 0
mrqq: max=15 avg=0.0526117
Memory Partition 4: 
Cache L2_bank_008:
MSHR contents

Cache L2_bank_009:
MSHR contents

In Dram Latency Queue (total = 0): 
DRAM[4]: 16 bks, busW=4 BL=8 CL=12, tRRD=2 tCCD=6, tRCD=12 tRAS=28 tRP=12 tRC=40
n_cmd=1007304 n_nop=983687 n_act=2451 n_pre=2435 n_req=9892 n_rd=15738 n_write=2993 bw_util=0.03719
n_activity=159107 dram_eff=0.2355
bk0: 974a 998221i bk1: 944a 998708i bk2: 986a 997732i bk3: 1002a 997468i bk4: 994a 997952i bk5: 1004a 997157i bk6: 1084a 996266i bk7: 1052a 997004i bk8: 1166a 996235i bk9: 1142a 995392i bk10: 1030a 996846i bk11: 986a 997956i bk12: 872a 1000208i bk13: 848a 1000111i bk14: 852a 1002898i bk15: 802a 1003409i 
dram_util_bins: 0 0 0 0 0 0 0 0 0 0
dram_eff_bins: 0 0 0 0 0 0 0 0 0 0
mrqq: max=16 avg=0.0912862
Memory Partition 5: 
Cache L2_bank_010:
MSHR contents

Cache L2_bank_011:
MSHR contents

In Dram Latency Queue (total = 0): 
DRAM[5]: 16 bks, busW=4 BL=8 CL=12, tRRD=2 tCCD=6, tRCD=12 tRAS=28 tRP=12 tRC=40
n_cmd=1007304 n_nop=982412 n_act=2812 n_pre=2796 n_req=10195 n_rd=16166 n_write=3118 bw_util=0.03829
n_activity=168479 dram_eff=0.2289
bk0: 996a 998166i bk1: 1046a 995858i bk2: 1054a 995834i bk3: 1058a 995900i bk4: 1000a 997157i bk5: 1006a 997375i bk6: 1088a 997514i bk7: 1126a 997132i bk8: 1120a 996406i bk9: 1152a 995621i bk10: 1088a 997420i bk11: 1062a 997143i bk12: 876a 1001121i bk13: 874a 1000584i bk14: 810a 1002832i bk15: 810a 1003870i 
dram_util_bins: 0 0 0 0 0 0 0 0 0 0
dram_eff_bins: 0 0 0 0 0 0 0 0 0 0
mrqq: max=16 avg=0.0647501

========= L2 cache stats =========
L2_cache_bank[0]: Access = 81336, Miss = 3943, Miss_rate = 0.048, Pending_hits = 17, Reservation_fails = 227
L2_cache_bank[1]: Access = 82024, Miss = 4020, Miss_rate = 0.049, Pending_hits = 12, Reservation_fails = 679
L2_cache_bank[2]: Access = 81288, Miss = 4185, Miss_rate = 0.051, Pending_hits = 20, Reservation_fails = 115
L2_cache_bank[3]: Access = 82397, Miss = 4140, Miss_rate = 0.050, Pending_hits = 7, Reservation_fails = 2
L2_cache_bank[4]: Access = 81039, Miss = 4007, Miss_rate = 0.049, Pending_hits = 11, Reservation_fails = 18
L2_cache_bank[5]: Access = 82390, Miss = 4103, Miss_rate = 0.050, Pending_hits = 23, Reservation_fails = 291
L2_cache_bank[6]: Access = 82262, Miss = 4024, Miss_rate = 0.049, Pending_hits = 13, Reservation_fails = 0
L2_cache_bank[7]: Access = 82401, Miss = 4098, Miss_rate = 0.050, Pending_hits = 7, Reservation_fails = 0
L2_cache_bank[8]: Access = 121499, Miss = 3979, Miss_rate = 0.033, Pending_hits = 8, Reservation_fails = 641
L2_cache_bank[9]: Access = 83062, Miss = 3890, Miss_rate = 0.047, Pending_hits = 9, Reservation_fails = 717
L2_cache_bank[10]: Access = 82215, Miss = 4016, Miss_rate = 0.049, Pending_hits = 12, Reservation_fails = 0
L2_cache_bank[11]: Access = 82792, Miss = 4067, Miss_rate = 0.049, Pending_hits = 12, Reservation_fails = 0
L2_total_cache_accesses = 1024705
L2_total_cache_misses = 48472
L2_total_cache_miss_rate = 0.0473
L2_total_cache_pending_hits = 151
L2_total_cache_reservation_fails = 2690
L2_total_cache_breakdown:
	L2_cache_stats_breakdown[GLOBAL_ACC_R][HIT] = 568776
	L2_cache_stats_breakdown[GLOBAL_ACC_R][HIT_RESERVED] = 27
	L2_cache_stats_breakdown[GLOBAL_ACC_R][MISS] = 41959
	L2_cache_stats_breakdown[GLOBAL_ACC_R][RESERVATION_FAIL] = 2344
	L2_cache_stats_breakdown[CONST_ACC_R][HIT] = 11
	L2_cache_stats_breakdown[CONST_ACC_R][HIT_RESERVED] = 3
	L2_cache_stats_breakdown[CONST_ACC_R][MISS] = 1
	L2_cache_stats_breakdown[CONST_ACC_R][RESERVATION_FAIL] = 111
	L2_cache_stats_breakdown[GLOBAL_ACC_W][HIT] = 407245
	L2_cache_stats_breakdown[GLOBAL_ACC_W][HIT_RESERVED] = 115
	L2_cache_stats_breakdown[GLOBAL_ACC_W][MISS] = 6508
	L2_cache_stats_breakdown[GLOBAL_ACC_W][RESERVATION_FAIL] = 4
	L2_cache_stats_breakdown[INST_ACC_R][HIT] = 50
	L2_cache_stats_breakdown[INST_ACC_R][HIT_RESERVED] = 6
	L2_cache_stats_breakdown[INST_ACC_R][MISS] = 4
	L2_cache_stats_breakdown[INST_ACC_R][RESERVATION_FAIL] = 231
L2_cache_data_port_util = 0.295
L2_cache_fill_port_util = 0.021

icnt_total_pkts_mem_to_simt=3468023
icnt_total_pkts_simt_to_mem=1439202
LD_mem_lat_dist  0 0 0 0 0 0 0 0 0 0 0 0 0 0 0 0 0 0 0 0 0 0 0 0 0 0 0
ST_mem_lat_dist  0 0 0 0 0 0 0 0 0 0 0 0 0 0 0 0 0 0 0 0 0 0 0 0 0 0 0
----------------------------Interconnect-DETAILS--------------------------------
Class 0:
Packet latency average = 9.49542
	minimum = 6
	maximum = 38
Network latency average = 9.07793
	minimum = 6
	maximum = 30
Slowest packet = 2046897
Flit latency average = 7.70678
	minimum = 6
	maximum = 26
Slowest flit = 4901696
Fragmentation average = 0
	minimum = 0
	maximum = 0
Injected packet rate average = 0.0302526
	minimum = 0.0190092 (at node 8)
	maximum = 0.0380184 (at node 13)
Accepted packet rate average = 0.0302526
	minimum = 0.0190092 (at node 8)
	maximum = 0.0380184 (at node 13)
Injected flit rate average = 0.0842934
	minimum = 0.0207373 (at node 8)
	maximum = 0.169931 (at node 21)
Accepted flit rate average= 0.0842934
	minimum = 0.0357143 (at node 22)
	maximum = 0.167051 (at node 13)
Injected packet length average = 2.78632
Accepted packet length average = 2.78632
Total in-flight flits = 0 (0 measured)
====== Overall Traffic Statistics ======
====== Traffic class 0 ======
Packet latency average = 29.223 (8 samples)
	minimum = 6 (8 samples)
	maximum = 273.75 (8 samples)
Network latency average = 19.7779 (8 samples)
	minimum = 6 (8 samples)
	maximum = 218.25 (8 samples)
Flit latency average = 15.5803 (8 samples)
	minimum = 6 (8 samples)
	maximum = 216.125 (8 samples)
Fragmentation average = 0.0285007 (8 samples)
	minimum = 0 (8 samples)
	maximum = 153.5 (8 samples)
Injected packet rate average = 0.0541341 (8 samples)
	minimum = 0.0414395 (8 samples)
	maximum = 0.0983161 (8 samples)
Accepted packet rate average = 0.0541341 (8 samples)
	minimum = 0.0414395 (8 samples)
	maximum = 0.0983161 (8 samples)
Injected flit rate average = 0.133378 (8 samples)
	minimum = 0.0553685 (8 samples)
	maximum = 0.260647 (8 samples)
Accepted flit rate average = 0.133378 (8 samples)
	minimum = 0.0722121 (8 samples)
	maximum = 0.224638 (8 samples)
Injected packet size average = 2.46386 (8 samples)
Accepted packet size average = 2.46386 (8 samples)
Hops average = 1 (8 samples)
----------------------------END-of-Interconnect-DETAILS-------------------------


gpgpu_simulation_time = 0 days, 0 hrs, 10 min, 9 sec (609 sec)
gpgpu_simulation_rate = 26116 (inst/sec)
gpgpu_simulation_rate = 1253 (cycle/sec)
GPGPU-Sim: synchronize waiting for inactive GPU simulation
GPGPU-Sim API: Stream Manager State
GPGPU-Sim: detected inactive GPU simulation thread
Kernel Executed 8 times
Processing time: 608888.125000 (ms)
Result stored in result.txt
