

        *** GPGPU-Sim Simulator Version 3.2.2  [build 0] ***


GPGPU-Sim PTX: simulation mode 0 (can change with PTX_SIM_MODE_FUNC environment variable:
               1=functional simulation only, 0=detailed performance simulator)
GPGPU-Sim: Configuration options:

-network_mode                           1 # Interconnection network mode
-inter_config_file   config_fermi_islip.icnt # Interconnection network config file
-gpgpu_ptx_use_cuobjdump                    1 # Use cuobjdump to extract ptx and sass from binaries
-gpgpu_experimental_lib_support                    0 # Try to extract code from cuda libraries [Broken because of unknown cudaGetExportTable]
-gpgpu_ptx_convert_to_ptxplus                    0 # Convert SASS (native ISA) to ptxplus and run ptxplus
-gpgpu_ptx_force_max_capability                   20 # Force maximum compute capability
-gpgpu_ptx_inst_debug_to_file                    0 # Dump executed instructions' debug information to file
-gpgpu_ptx_inst_debug_file       inst_debug.txt # Executed instructions' debug output file
-gpgpu_ptx_inst_debug_thread_uid                    1 # Thread UID for executed instructions' debug output
-gpgpu_simd_model                       1 # 1 = post-dominator
-gpgpu_shader_core_pipeline              1536:32 # shader core pipeline config, i.e., {<nthread>:<warpsize>}
-gpgpu_tex_cache:l1  4:128:24,L:R:m:N:L,F:128:4,128:2 # per-shader L1 texture cache  (READ-ONLY) config  {<nsets>:<bsize>:<assoc>,<rep>:<wr>:<alloc>:<wr_alloc>,<mshr>:<N>:<merge>,<mq>:<rf>}
-gpgpu_const_cache:l1 64:64:2,L:R:f:N:L,A:2:32,4 # per-shader L1 constant memory cache  (READ-ONLY) config  {<nsets>:<bsize>:<assoc>,<rep>:<wr>:<alloc>:<wr_alloc>,<mshr>:<N>:<merge>,<mq>} 
-gpgpu_cache:il1     4:128:4,L:R:f:N:L,A:2:32,4 # shader L1 instruction cache config  {<nsets>:<bsize>:<assoc>,<rep>:<wr>:<alloc>:<wr_alloc>,<mshr>:<N>:<merge>,<mq>} 
-gpgpu_cache:dl1     32:128:4,L:L:m:N:H,A:32:8,8 # per-shader L1 data cache config  {<nsets>:<bsize>:<assoc>,<rep>:<wr>:<alloc>:<wr_alloc>,<mshr>:<N>:<merge>,<mq> | none}
-gpgpu_cache:dl1PrefL1                 none # per-shader L1 data cache config  {<nsets>:<bsize>:<assoc>,<rep>:<wr>:<alloc>:<wr_alloc>,<mshr>:<N>:<merge>,<mq> | none}
-gpgpu_cache:dl1PreShared                 none # per-shader L1 data cache config  {<nsets>:<bsize>:<assoc>,<rep>:<wr>:<alloc>:<wr_alloc>,<mshr>:<N>:<merge>,<mq> | none}
-gmem_skip_L1D                          0 # global memory access skip L1D cache (implements -Xptxas -dlcm=cg, default=no skip)
-gpgpu_perfect_mem                      0 # enable perfect memory mode (no cache miss)
-n_regfile_gating_group                    4 # group of lanes that should be read/written together)
-gpgpu_clock_gated_reg_file                    0 # enable clock gated reg file for power calculations
-gpgpu_clock_gated_lanes                    0 # enable clock gated lanes for power calculations
-gpgpu_shader_registers                32768 # Number of registers per shader core. Limits number of concurrent CTAs. (default 8192)
-gpgpu_shader_cta                       8 # Maximum number of concurrent CTAs in shader (default 8)
-gpgpu_num_cta_barriers                   16 # Maximum number of named barriers per CTA (default 16)
-gpgpu_n_clusters                      15 # number of processing clusters
-gpgpu_n_cores_per_cluster                    1 # number of simd cores per cluster
-gpgpu_n_cluster_ejection_buffer_size                    8 # number of packets in ejection buffer
-gpgpu_n_ldst_response_buffer_size                    2 # number of response packets in ld/st unit ejection buffer
-gpgpu_shmem_size                   16384 # Size of shared memory per shader core (default 16kB)
-gpgpu_shmem_size                   49152 # Size of shared memory per shader core (default 16kB)
-gpgpu_shmem_size_PrefL1                16384 # Size of shared memory per shader core (default 16kB)
-gpgpu_shmem_size_PrefShared                16384 # Size of shared memory per shader core (default 16kB)
-gpgpu_shmem_num_banks                   32 # Number of banks in the shared memory in each shader core (default 16)
-gpgpu_shmem_limited_broadcast                    0 # Limit shared memory to do one broadcast per cycle (default on)
-gpgpu_shmem_warp_parts                    1 # Number of portions a warp is divided into for shared memory bank conflict check 
-gpgpu_warpdistro_shader                   -1 # Specify which shader core to collect the warp size distribution from
-gpgpu_warp_issue_shader                    0 # Specify which shader core to collect the warp issue distribution from
-gpgpu_local_mem_map                    1 # Mapping from local memory space address to simulated GPU physical address space (default = enabled)
-gpgpu_num_reg_banks                   16 # Number of register banks (default = 8)
-gpgpu_reg_bank_use_warp_id                    0 # Use warp ID in mapping registers to banks (default = off)
-gpgpu_operand_collector_num_units_sp                    6 # number of collector units (default = 4)
-gpgpu_operand_collector_num_units_sfu                    8 # number of collector units (default = 4)
-gpgpu_operand_collector_num_units_mem                    2 # number of collector units (default = 2)
-gpgpu_operand_collector_num_units_gen                    0 # number of collector units (default = 0)
-gpgpu_operand_collector_num_in_ports_sp                    2 # number of collector unit in ports (default = 1)
-gpgpu_operand_collector_num_in_ports_sfu                    1 # number of collector unit in ports (default = 1)
-gpgpu_operand_collector_num_in_ports_mem                    1 # number of collector unit in ports (default = 1)
-gpgpu_operand_collector_num_in_ports_gen                    0 # number of collector unit in ports (default = 0)
-gpgpu_operand_collector_num_out_ports_sp                    2 # number of collector unit in ports (default = 1)
-gpgpu_operand_collector_num_out_ports_sfu                    1 # number of collector unit in ports (default = 1)
-gpgpu_operand_collector_num_out_ports_mem                    1 # number of collector unit in ports (default = 1)
-gpgpu_operand_collector_num_out_ports_gen                    0 # number of collector unit in ports (default = 0)
-gpgpu_coalesce_arch                   13 # Coalescing arch (default = 13, anything else is off for now)
-gpgpu_num_sched_per_core                    2 # Number of warp schedulers per core
-gpgpu_max_insn_issue_per_warp                    1 # Max number of instructions that can be issued per warp in one cycle by scheduler
-gpgpu_simt_core_sim_order                    1 # Select the simulation order of cores in a cluster (0=Fix, 1=Round-Robin)
-gpgpu_pipeline_widths        2,1,1,2,1,1,2 # Pipeline widths ID_OC_SP,ID_OC_SFU,ID_OC_MEM,OC_EX_SP,OC_EX_SFU,OC_EX_MEM,EX_WB
-gpgpu_num_sp_units                     2 # Number of SP units (default=1)
-gpgpu_num_sfu_units                    1 # Number of SF units (default=1)
-gpgpu_num_mem_units                    1 # Number if ldst units (default=1) WARNING: not hooked up to anything
-gpgpu_scheduler                      gto # Scheduler configuration: < lrr | gto | two_level_active > If two_level_active:<num_active_warps>:<inner_prioritization>:<outer_prioritization>For complete list of prioritization values see shader.h enum scheduler_prioritization_typeDefault: gto
-gpgpu_dram_scheduler                    1 # 0 = fifo, 1 = FR-FCFS (defaul)
-gpgpu_dram_partition_queues              8:8:8:8 # i2$:$2d:d2$:$2i
-l2_ideal                               0 # Use a ideal L2 cache that always hit
-gpgpu_cache:dl2     64:128:8,L:B:m:W:L,A:32:4,4:0,32 # unified banked L2 data cache config  {<nsets>:<bsize>:<assoc>,<rep>:<wr>:<alloc>:<wr_alloc>,<mshr>:<N>:<merge>,<mq>}
-gpgpu_cache:dl2_texture_only                    0 # L2 cache used for texture only
-gpgpu_n_mem                            6 # number of memory modules (e.g. memory controllers) in gpu
-gpgpu_n_sub_partition_per_mchannel                    2 # number of memory subpartition in each memory module
-gpgpu_n_mem_per_ctrlr                    2 # number of memory chips per memory controller
-gpgpu_memlatency_stat                   14 # track and display latency statistics 0x2 enables MC, 0x4 enables queue logs
-gpgpu_frfcfs_dram_sched_queue_size                   16 # 0 = unlimited (default); # entries per chip
-gpgpu_dram_return_queue_size                  116 # 0 = unlimited (default); # entries per chip
-gpgpu_dram_buswidth                    2 # default = 4 bytes (8 bytes per cycle at DDR)
-gpgpu_dram_burst_length                    8 # Burst length of each DRAM request (default = 4 data bus cycle)
-dram_data_command_freq_ratio                    4 # Frequency ratio between DRAM data bus and command bus (default = 2 times, i.e. DDR)
-gpgpu_dram_timing_opt nbk=16:CCD=2:RRD=6:RCD=12:RAS=28:RP=12:RC=40: CL=12:WL=4:CDLR=5:WR=12:nbkgrp=4:CCDL=3:RTPL=2 # DRAM timing parameters = {nbk:tCCD:tRRD:tRCD:tRAS:tRP:tRC:CL:WL:tCDLR:tWR:nbkgrp:tCCDL:tRTPL}
-rop_latency                          120 # ROP queue latency (default 85)
-dram_latency                         100 # DRAM latency (default 30)
-gpgpu_mem_addr_mapping dramid@8;00000000.00000000.00000000.00000000.0000RRRR.RRRRRRRR.BBBCCCCB.CCSSSSSS # mapping memory address to dram model {dramid@<start bit>;<memory address map>}
-gpgpu_mem_addr_test                    0 # run sweep test to check address mapping for aliased address
-gpgpu_mem_address_mask                    1 # 0 = old addressing mask, 1 = new addressing mask, 2 = new add. mask + flipped bank sel and chip sel bits
-gpuwattch_xml_file  gpuwattch_gtx480.xml # GPUWattch XML file
-power_simulation_enabled                    1 # Turn on power simulator (1=On, 0=Off)
-power_per_cycle_dump                    0 # Dump detailed power output each cycle
-power_trace_enabled                    0 # produce a file for the power trace (1=On, 0=Off)
-power_trace_zlevel                     6 # Compression level of the power trace output log (0=no comp, 9=highest)
-steady_power_levels_enabled                    0 # produce a file for the steady power levels (1=On, 0=Off)
-steady_state_definition                  8:4 # allowed deviation:number of samples
-gpgpu_max_cycle                        0 # terminates gpu simulation early (0 = no limit)
-gpgpu_max_insn                         0 # terminates gpu simulation early (0 = no limit)
-gpgpu_max_cta                          0 # terminates gpu simulation early (0 = no limit)
-gpgpu_runtime_stat                   500 # display runtime statistics such as dram utilization {<freq>:<flag>}
-liveness_message_freq                    1 # Minimum number of seconds between simulation liveness messages (0 = always print)
-gpgpu_flush_l1_cache                    0 # Flush L1 cache at the end of each kernel call
-gpgpu_flush_l2_cache                    0 # Flush L2 cache at the end of each kernel call
-gpgpu_deadlock_detect                    1 # Stop the simulation at deadlock (1=on (default), 0=off)
-gpgpu_ptx_instruction_classification                    0 # if enabled will classify ptx instruction types per kernel (Max 255 kernels now)
-gpgpu_ptx_sim_mode                     0 # Select between Performance (default) or Functional simulation (1)
-gpgpu_clock_domains 700.0:700.0:700.0:924.0 # Clock Domain Frequencies in MhZ {<Core Clock>:<ICNT Clock>:<L2 Clock>:<DRAM Clock>}
-gpgpu_max_concurrent_kernel                    8 # maximum kernels that can run concurrently on GPU
-gpgpu_cflog_interval                    0 # Interval between each snapshot in control flow logger
-visualizer_enabled                     0 # Turn on visualizer output (1=On, 0=Off)
-visualizer_outputfile                 NULL # Specifies the output log file for visualizer
-visualizer_zlevel                      6 # Compression level of the visualizer output log (0=no comp, 9=highest)
-trace_enabled                          0 # Turn on traces
-trace_components                    none # comma seperated list of traces to enable. Complete list found in trace_streams.tup. Default none
-trace_sampling_core                    0 # The core which is printed using CORE_DPRINTF. Default 0
-trace_sampling_memory_partition                   -1 # The memory partition which is printed using MEMPART_DPRINTF. Default -1 (i.e. all)
-enable_ptx_file_line_stats                    1 # Turn on PTX source line statistic profiling. (1 = On)
-ptx_line_stats_filename gpgpu_inst_stats.txt # Output file for PTX source line statistics.
-save_embedded_ptx                      0 # saves ptx files embedded in binary as <n>.ptx
-keep                                   0 # keep intermediate files created by GPGPU-Sim when interfacing with external programs
-gpgpu_ptx_save_converted_ptxplus                    0 # Saved converted ptxplus to a file
-ptx_opcode_latency_int         4,13,4,5,145 # Opcode latencies for integers <ADD,MAX,MUL,MAD,DIV>Default 1,1,19,25,145
-ptx_opcode_latency_fp          4,13,4,5,39 # Opcode latencies for single precision floating points <ADD,MAX,MUL,MAD,DIV>Default 1,1,1,1,30
-ptx_opcode_latency_dp         8,19,8,8,330 # Opcode latencies for double precision floating points <ADD,MAX,MUL,MAD,DIV>Default 8,8,8,8,335
-ptx_opcode_initiation_int            1,2,2,1,8 # Opcode initiation intervals for integers <ADD,MAX,MUL,MAD,DIV>Default 1,1,4,4,32
-ptx_opcode_initiation_fp            1,2,1,1,4 # Opcode initiation intervals for single precision floating points <ADD,MAX,MUL,MAD,DIV>Default 1,1,1,1,5
-ptx_opcode_initiation_dp         8,16,8,8,130 # Opcode initiation intervals for double precision floating points <ADD,MAX,MUL,MAD,DIV>Default 8,8,8,8,130
DRAM Timing Options:
nbk                                    16 # number of banks
CCD                                     2 # column to column delay
RRD                                     6 # minimal delay between activation of rows in different banks
RCD                                    12 # row to column delay
RAS                                    28 # time needed to activate row
RP                                     12 # time needed to precharge (deactivate) row
RC                                     40 # row cycle time
CDLR                                    5 # switching from write to read (changes tWTR)
WR                                     12 # last data-in to row precharge
CL                                     12 # CAS latency
WL                                      4 # Write latency
nbkgrp                                  4 # number of bank groups
CCDL                                    3 # column to column delay between accesses to different bank groups
RTPL                                    2 # read to precharge delay between accesses to different bank groups
Total number of memory sub partition = 12
addr_dec_mask[CHIP]  = 0000000000000000 	high:64 low:0
addr_dec_mask[BK]    = 000000000000e100 	high:16 low:8
addr_dec_mask[ROW]   = 000000000fff0000 	high:28 low:16
addr_dec_mask[COL]   = 0000000000001eff 	high:13 low:0
addr_dec_mask[BURST] = 000000000000003f 	high:6 low:0
sub_partition_id_mask = 0000000000000100
GPGPU-Sim uArch: clock freqs: 700000000.000000:700000000.000000:700000000.000000:924000000.000000
GPGPU-Sim uArch: clock periods: 0.00000000142857142857:0.00000000142857142857:0.00000000142857142857:0.00000000108225108225
*** Initializing Memory Statistics ***
GPGPU-Sim uArch: interconnect node map (shaderID+MemID to icntID)
GPGPU-Sim uArch: Memory nodes ID start from index: 15
GPGPU-Sim uArch:    0   1   2   3   4
GPGPU-Sim uArch:    5   6   7   8   9
GPGPU-Sim uArch:   10  11  12  13  14
GPGPU-Sim uArch:   15  16  17  18  19
GPGPU-Sim uArch:   20  21  22  23  24
GPGPU-Sim uArch:   25  26
GPGPU-Sim uArch: interconnect node reverse map (icntID to shaderID+MemID)
GPGPU-Sim uArch: Memory nodes start from ID: 15
GPGPU-Sim uArch:    0   1   2   3   4
GPGPU-Sim uArch:    5   6   7   8   9
GPGPU-Sim uArch:   10  11  12  13  14
GPGPU-Sim uArch:   15  16  17  18  19
GPGPU-Sim uArch:   20  21  22  23  24
GPGPU-Sim uArch:   25  26
42f7b457b4f8bc5f243a2d9180567621  /home/scratch/adwait/applications/benchmarks/CUDA/BlackScholes/gpgpu_ptx_sim__BlackScholes
GPGPU-Sim uArch: performance model initialization complete.
GPGPU-Sim PTX: __cudaRegisterFatBinary, fat_cubin_handle = 1, filename=BlackScholes.cu
self exe links to: /home/scratch/adwait/applications/benchmarks/CUDA/BlackScholes/gpgpu_ptx_sim__BlackScholes
Running md5sum using "md5sum /home/scratch/adwait/applications/benchmarks/CUDA/BlackScholes/gpgpu_ptx_sim__BlackScholes "
Running cuobjdump using "$CUDA_INSTALL_PATH/bin/cuobjdump -ptx -elf -sass /home/scratch/adwait/applications/benchmarks/CUDA/BlackScholes/gpgpu_ptx_sim__BlackScholes > _cuobjdump_complete_output_7EbalW"
Parsing file _cuobjdump_complete_output_7EbalW
######### cuobjdump parser ########
## Adding new section ELF
Adding arch: sm_20
Adding identifier: BlackScholes.cu
## Adding new section PTX
Adding ptx filename: _cuobjdump_1.ptx
Adding arch: sm_20
Adding identifier: BlackScholes.cu
Done parsing!!!
GPGPU-Sim PTX: __cudaRegisterFunction _Z15BlackScholesGPUPfS_S_S_S_ffi : hostFun 0x0x4050ed, fat_cubin_handle = 1
GPGPU-Sim PTX: instruction assembly for function '_Z15BlackScholesGPUPfS_S_S_S_ffi'...   done.
GPGPU-Sim PTX: finding reconvergence points for '_Z15BlackScholesGPUPfS_S_S_S_ffi'...
GPGPU-Sim PTX: Finding dominators for '_Z15BlackScholesGPUPfS_S_S_S_ffi'...
GPGPU-Sim PTX: Finding immediate dominators for '_Z15BlackScholesGPUPfS_S_S_S_ffi'...
GPGPU-Sim PTX: Finding postdominators for '_Z15BlackScholesGPUPfS_S_S_S_ffi'...
GPGPU-Sim PTX: Finding immediate postdominators for '_Z15BlackScholesGPUPfS_S_S_S_ffi'...
GPGPU-Sim PTX: pre-decoding instructions for '_Z15BlackScholesGPUPfS_S_S_S_ffi'...
GPGPU-Sim PTX: reconvergence points for _Z15BlackScholesGPUPfS_S_S_S_ffi...
GPGPU-Sim PTX:  1 (potential) branch divergence @  PC=0x040 (_1.ptx:76) @%p1 bra $Lt_0_2818;
GPGPU-Sim PTX:    immediate post dominator      @  PC=0x3f8 (_1.ptx:200) exit;
GPGPU-Sim PTX:  2 (potential) branch divergence @  PC=0x3f0 (_1.ptx:197) @%p4 bra $Lt_0_3330;
GPGPU-Sim PTX:    immediate post dominator      @  PC=0x3f8 (_1.ptx:200) exit;
GPGPU-Sim PTX: ... end of reconvergence points for _Z15BlackScholesGPUPfS_S_S_S_ffi
GPGPU-Sim PTX: ... done pre-decoding instructions for '_Z15BlackScholesGPUPfS_S_S_S_ffi'.
GPGPU-Sim PTX: finished parsing EMBEDDED .ptx file _1.ptx
Adding _cuobjdump_1.ptx with cubin handle 1
GPGPU-Sim PTX: extracting embedded .ptx to temporary file "_ptx_KXh3RZ"
Running: cat _ptx_KXh3RZ | sed 's/.version 1.5/.version 1.4/' | sed 's/, texmode_independent//' | sed 's/\(\.extern \.const\[1\] .b8 \w\+\)\[\]/\1\[1\]/' | sed 's/const\[.\]/const\[0\]/g' > _ptx2_e3Jlp3
GPGPU-Sim PTX: generating ptxinfo using "$CUDA_INSTALL_PATH/bin/ptxas --gpu-name=sm_20 -v _ptx2_e3Jlp3 --output-file  /dev/null 2> _ptx_KXh3RZinfo"
GPGPU-Sim PTX: Kernel '_Z15BlackScholesGPUPfS_S_S_S_ffi' : regs=31, lmem=0, smem=0, cmem=128
GPGPU-Sim PTX: removing ptxinfo using "rm -f _ptx_KXh3RZ _ptx2_e3Jlp3 _ptx_KXh3RZinfo"
GPGPU-Sim PTX: loading globals with explicit initializers... 
GPGPU-Sim PTX: finished loading globals (0 bytes total).
GPGPU-Sim PTX: loading constants with explicit initializers...  done.
Initializing data...
...allocating CPU memory for options.
...allocating GPU memory for options.
...generating input data in CPU mem.
...copying input data to GPU mem.
Data init done.
Executing Black-Scholes GPU kernel (1 iterations)...
GPGPU-Sim: synchronize waiting for inactive GPU simulation
GPGPU-Sim API: Stream Manager State
GPGPU-Sim: detected inactive GPU simulation thread

GPGPU-Sim PTX: cudaLaunch for 0x0x4050ed (mode=performance simulation) on stream 0
GPGPU-Sim PTX: pushing kernel '_Z15BlackScholesGPUPfS_S_S_S_ffi' to stream 0, gridDim= (480,1,1) blockDim = (128,1,1) 
kernel '_Z15BlackScholesGPUPfS_S_S_S_ffi' transfer to GPU hardware scheduler
GPGPU-Sim uArch: Shader 1 bind to kernel 1 '_Z15BlackScholesGPUPfS_S_S_S_ffi'
GPGPU-Sim uArch: CTA/core = 8, limited by: regs cta_limit
GPGPU-Sim uArch: core:  1, cta: 0 initialized @(1,0)
GPGPU-Sim uArch: Shader 2 bind to kernel 1 '_Z15BlackScholesGPUPfS_S_S_S_ffi'
GPGPU-Sim uArch: core:  2, cta: 0 initialized @(1,0)
GPGPU-Sim uArch: Shader 3 bind to kernel 1 '_Z15BlackScholesGPUPfS_S_S_S_ffi'
GPGPU-Sim uArch: core:  3, cta: 0 initialized @(1,0)
GPGPU-Sim uArch: Shader 4 bind to kernel 1 '_Z15BlackScholesGPUPfS_S_S_S_ffi'
GPGPU-Sim uArch: core:  4, cta: 0 initialized @(1,0)
GPGPU-Sim uArch: Shader 5 bind to kernel 1 '_Z15BlackScholesGPUPfS_S_S_S_ffi'
GPGPU-Sim uArch: core:  5, cta: 0 initialized @(1,0)
GPGPU-Sim uArch: Shader 6 bind to kernel 1 '_Z15BlackScholesGPUPfS_S_S_S_ffi'
GPGPU-Sim uArch: core:  6, cta: 0 initialized @(1,0)
GPGPU-Sim uArch: Shader 7 bind to kernel 1 '_Z15BlackScholesGPUPfS_S_S_S_ffi'
GPGPU-Sim uArch: core:  7, cta: 0 initialized @(1,0)
GPGPU-Sim uArch: Shader 8 bind to kernel 1 '_Z15BlackScholesGPUPfS_S_S_S_ffi'
GPGPU-Sim uArch: core:  8, cta: 0 initialized @(1,0)
GPGPU-Sim uArch: Shader 9 bind to kernel 1 '_Z15BlackScholesGPUPfS_S_S_S_ffi'
GPGPU-Sim uArch: core:  9, cta: 0 initialized @(1,0)
GPGPU-Sim uArch: Shader 10 bind to kernel 1 '_Z15BlackScholesGPUPfS_S_S_S_ffi'
GPGPU-Sim uArch: core: 10, cta: 0 initialized @(1,0)
GPGPU-Sim uArch: Shader 11 bind to kernel 1 '_Z15BlackScholesGPUPfS_S_S_S_ffi'
GPGPU-Sim uArch: core: 11, cta: 0 initialized @(1,0)
GPGPU-Sim uArch: Shader 12 bind to kernel 1 '_Z15BlackScholesGPUPfS_S_S_S_ffi'
GPGPU-Sim uArch: core: 12, cta: 0 initialized @(1,0)
GPGPU-Sim uArch: Shader 13 bind to kernel 1 '_Z15BlackScholesGPUPfS_S_S_S_ffi'
GPGPU-Sim uArch: core: 13, cta: 0 initialized @(1,0)
GPGPU-Sim uArch: Shader 14 bind to kernel 1 '_Z15BlackScholesGPUPfS_S_S_S_ffi'
GPGPU-Sim uArch: core: 14, cta: 0 initialized @(1,0)
GPGPU-Sim uArch: Shader 0 bind to kernel 1 '_Z15BlackScholesGPUPfS_S_S_S_ffi'
GPGPU-Sim uArch: core:  0, cta: 0 initialized @(1,0)
GPGPU-Sim uArch: core:  1, cta: 1 initialized @(2,0)
GPGPU-Sim uArch: core:  2, cta: 1 initialized @(2,0)
GPGPU-Sim uArch: core:  3, cta: 1 initialized @(2,0)
GPGPU-Sim uArch: core:  4, cta: 1 initialized @(2,0)
GPGPU-Sim uArch: core:  5, cta: 1 initialized @(2,0)
GPGPU-Sim uArch: core:  6, cta: 1 initialized @(2,0)
GPGPU-Sim uArch: core:  7, cta: 1 initialized @(2,0)
GPGPU-Sim uArch: core:  8, cta: 1 initialized @(2,0)
GPGPU-Sim uArch: core:  9, cta: 1 initialized @(2,0)
GPGPU-Sim uArch: core: 10, cta: 1 initialized @(2,0)
GPGPU-Sim uArch: core: 11, cta: 1 initialized @(2,0)
GPGPU-Sim uArch: core: 12, cta: 1 initialized @(2,0)
GPGPU-Sim uArch: core: 13, cta: 1 initialized @(2,0)
GPGPU-Sim uArch: core: 14, cta: 1 initialized @(2,0)
GPGPU-Sim uArch: core:  0, cta: 1 initialized @(2,0)
GPGPU-Sim uArch: core:  1, cta: 2 initialized @(3,0)
GPGPU-Sim uArch: core:  2, cta: 2 initialized @(3,0)
GPGPU-Sim uArch: core:  3, cta: 2 initialized @(3,0)
GPGPU-Sim uArch: core:  4, cta: 2 initialized @(3,0)
GPGPU-Sim uArch: core:  5, cta: 2 initialized @(3,0)
GPGPU-Sim uArch: core:  6, cta: 2 initialized @(3,0)
GPGPU-Sim uArch: core:  7, cta: 2 initialized @(3,0)
GPGPU-Sim uArch: core:  8, cta: 2 initialized @(3,0)
GPGPU-Sim uArch: core:  9, cta: 2 initialized @(3,0)
GPGPU-Sim uArch: core: 10, cta: 2 initialized @(3,0)
GPGPU-Sim uArch: core: 11, cta: 2 initialized @(3,0)
GPGPU-Sim uArch: core: 12, cta: 2 initialized @(3,0)
GPGPU-Sim uArch: core: 13, cta: 2 initialized @(3,0)
GPGPU-Sim uArch: core: 14, cta: 2 initialized @(3,0)
GPGPU-Sim uArch: core:  0, cta: 2 initialized @(3,0)
GPGPU-Sim uArch: core:  1, cta: 3 initialized @(4,0)
GPGPU-Sim uArch: core:  2, cta: 3 initialized @(4,0)
GPGPU-Sim uArch: core:  3, cta: 3 initialized @(4,0)
GPGPU-Sim uArch: core:  4, cta: 3 initialized @(4,0)
GPGPU-Sim uArch: core:  5, cta: 3 initialized @(4,0)
GPGPU-Sim uArch: core:  6, cta: 3 initialized @(4,0)
GPGPU-Sim uArch: core:  7, cta: 3 initialized @(4,0)
GPGPU-Sim uArch: core:  8, cta: 3 initialized @(4,0)
GPGPU-Sim uArch: core:  9, cta: 3 initialized @(4,0)
GPGPU-Sim uArch: core: 10, cta: 3 initialized @(4,0)
GPGPU-Sim uArch: core: 11, cta: 3 initialized @(4,0)
GPGPU-Sim uArch: core: 12, cta: 3 initialized @(4,0)
GPGPU-Sim uArch: core: 13, cta: 3 initialized @(4,0)
GPGPU-Sim uArch: core: 14, cta: 3 initialized @(4,0)
GPGPU-Sim uArch: core:  0, cta: 3 initialized @(4,0)
GPGPU-Sim uArch: core:  1, cta: 4 initialized @(5,0)
GPGPU-Sim uArch: core:  2, cta: 4 initialized @(5,0)
GPGPU-Sim uArch: core:  3, cta: 4 initialized @(5,0)
GPGPU-Sim uArch: core:  4, cta: 4 initialized @(5,0)
GPGPU-Sim uArch: core:  5, cta: 4 initialized @(5,0)
GPGPU-Sim uArch: core:  6, cta: 4 initialized @(5,0)
GPGPU-Sim uArch: core:  7, cta: 4 initialized @(5,0)
GPGPU-Sim uArch: core:  8, cta: 4 initialized @(5,0)
GPGPU-Sim uArch: core:  9, cta: 4 initialized @(5,0)
GPGPU-Sim uArch: core: 10, cta: 4 initialized @(5,0)
GPGPU-Sim uArch: core: 11, cta: 4 initialized @(5,0)
GPGPU-Sim uArch: core: 12, cta: 4 initialized @(5,0)
GPGPU-Sim uArch: core: 13, cta: 4 initialized @(5,0)
GPGPU-Sim uArch: core: 14, cta: 4 initialized @(5,0)
GPGPU-Sim uArch: core:  0, cta: 4 initialized @(5,0)
GPGPU-Sim uArch: core:  1, cta: 5 initialized @(6,0)
GPGPU-Sim uArch: core:  2, cta: 5 initialized @(6,0)
GPGPU-Sim uArch: core:  3, cta: 5 initialized @(6,0)
GPGPU-Sim uArch: core:  4, cta: 5 initialized @(6,0)
GPGPU-Sim uArch: core:  5, cta: 5 initialized @(6,0)
GPGPU-Sim uArch: core:  6, cta: 5 initialized @(6,0)
GPGPU-Sim uArch: core:  7, cta: 5 initialized @(6,0)
GPGPU-Sim uArch: core:  8, cta: 5 initialized @(6,0)
GPGPU-Sim uArch: core:  9, cta: 5 initialized @(6,0)
GPGPU-Sim uArch: core: 10, cta: 5 initialized @(6,0)
GPGPU-Sim uArch: core: 11, cta: 5 initialized @(6,0)
GPGPU-Sim uArch: core: 12, cta: 5 initialized @(6,0)
GPGPU-Sim uArch: core: 13, cta: 5 initialized @(6,0)
GPGPU-Sim uArch: core: 14, cta: 5 initialized @(6,0)
GPGPU-Sim uArch: core:  0, cta: 5 initialized @(6,0)
GPGPU-Sim uArch: core:  1, cta: 6 initialized @(7,0)
GPGPU-Sim uArch: core:  2, cta: 6 initialized @(7,0)
GPGPU-Sim uArch: core:  3, cta: 6 initialized @(7,0)
GPGPU-Sim uArch: core:  4, cta: 6 initialized @(7,0)
GPGPU-Sim uArch: core:  5, cta: 6 initialized @(7,0)
GPGPU-Sim uArch: core:  6, cta: 6 initialized @(7,0)
GPGPU-Sim uArch: core:  7, cta: 6 initialized @(7,0)
GPGPU-Sim uArch: core:  8, cta: 6 initialized @(7,0)
GPGPU-Sim uArch: core:  9, cta: 6 initialized @(7,0)
GPGPU-Sim uArch: core: 10, cta: 6 initialized @(7,0)
GPGPU-Sim uArch: core: 11, cta: 6 initialized @(7,0)
GPGPU-Sim uArch: core: 12, cta: 6 initialized @(7,0)
GPGPU-Sim uArch: core: 13, cta: 6 initialized @(7,0)
GPGPU-Sim uArch: core: 14, cta: 6 initialized @(7,0)
GPGPU-Sim uArch: core:  0, cta: 6 initialized @(7,0)
GPGPU-Sim uArch: core:  1, cta: 7 initialized @(8,0)
GPGPU-Sim uArch: core:  2, cta: 7 initialized @(8,0)
GPGPU-Sim uArch: core:  3, cta: 7 initialized @(8,0)
GPGPU-Sim uArch: core:  4, cta: 7 initialized @(8,0)
GPGPU-Sim uArch: core:  5, cta: 7 initialized @(8,0)
GPGPU-Sim uArch: core:  6, cta: 7 initialized @(8,0)
GPGPU-Sim uArch: core:  7, cta: 7 initialized @(8,0)
GPGPU-Sim uArch: core:  8, cta: 7 initialized @(8,0)
GPGPU-Sim uArch: core:  9, cta: 7 initialized @(8,0)
GPGPU-Sim uArch: core: 10, cta: 7 initialized @(8,0)
GPGPU-Sim uArch: core: 11, cta: 7 initialized @(8,0)
GPGPU-Sim uArch: core: 12, cta: 7 initialized @(8,0)
GPGPU-Sim uArch: core: 13, cta: 7 initialized @(8,0)
GPGPU-Sim uArch: core: 14, cta: 7 initialized @(8,0)
GPGPU-Sim uArch: core:  0, cta: 7 initialized @(8,0)
GPGPU-Sim PTX: 100000 instructions simulated : ctaid=(84,0,0) tid=(63,0,0)
GPGPU-Sim uArch: cycles simulated: 500  inst.: 92160 (ipc=184.3) sim_rate=92160 (inst/sec) elapsed = 0:0:00:01 / Wed May  1 12:43:14 2019
GPGPU-Sim PTX: 200000 instructions simulated : ctaid=(83,0,0) tid=(63,0,0)
GPGPU-Sim uArch: cycles simulated: 1000  inst.: 234304 (ipc=234.3) sim_rate=117152 (inst/sec) elapsed = 0:0:00:02 / Wed May  1 12:43:15 2019
GPGPU-Sim PTX: 300000 instructions simulated : ctaid=(9,0,0) tid=(95,0,0)
GPGPU-Sim PTX: 400000 instructions simulated : ctaid=(91,0,0) tid=(31,0,0)
GPGPU-Sim PTX: 500000 instructions simulated : ctaid=(23,0,0) tid=(31,0,0)
GPGPU-Sim uArch: cycles simulated: 2500  inst.: 512288 (ipc=204.9) sim_rate=170762 (inst/sec) elapsed = 0:0:00:03 / Wed May  1 12:43:16 2019
GPGPU-Sim PTX: 600000 instructions simulated : ctaid=(6,0,0) tid=(95,0,0)
GPGPU-Sim PTX: 700000 instructions simulated : ctaid=(20,0,0) tid=(127,0,0)
GPGPU-Sim PTX: 800000 instructions simulated : ctaid=(56,0,0) tid=(31,0,0)
GPGPU-Sim PTX: 900000 instructions simulated : ctaid=(1,0,0) tid=(95,0,0)
GPGPU-Sim PTX: 1000000 instructions simulated : ctaid=(14,0,0) tid=(63,0,0)
GPGPU-Sim uArch: cycles simulated: 3500  inst.: 990656 (ipc=283.0) sim_rate=247664 (inst/sec) elapsed = 0:0:00:04 / Wed May  1 12:43:17 2019
GPGPU-Sim PTX: 1100000 instructions simulated : ctaid=(42,0,0) tid=(95,0,0)
GPGPU-Sim PTX: 1200000 instructions simulated : ctaid=(6,0,0) tid=(127,0,0)
GPGPU-Sim PTX: 1300000 instructions simulated : ctaid=(63,0,0) tid=(31,0,0)
GPGPU-Sim PTX: 1400000 instructions simulated : ctaid=(66,0,0) tid=(63,0,0)
GPGPU-Sim PTX: 1500000 instructions simulated : ctaid=(79,0,0) tid=(95,0,0)
GPGPU-Sim PTX: 1600000 instructions simulated : ctaid=(3,0,0) tid=(63,0,0)
GPGPU-Sim PTX: 1700000 instructions simulated : ctaid=(62,0,0) tid=(31,0,0)
GPGPU-Sim uArch: cycles simulated: 4500  inst.: 1690656 (ipc=375.7) sim_rate=338131 (inst/sec) elapsed = 0:0:00:05 / Wed May  1 12:43:18 2019
GPGPU-Sim PTX: 1800000 instructions simulated : ctaid=(101,0,0) tid=(127,0,0)
GPGPU-Sim uArch: cycles simulated: 6000  inst.: 1861056 (ipc=310.2) sim_rate=310176 (inst/sec) elapsed = 0:0:00:06 / Wed May  1 12:43:19 2019
GPGPU-Sim PTX: 1900000 instructions simulated : ctaid=(34,0,0) tid=(95,0,0)
GPGPU-Sim PTX: 2000000 instructions simulated : ctaid=(92,0,0) tid=(31,0,0)
GPGPU-Sim PTX: 2100000 instructions simulated : ctaid=(48,0,0) tid=(95,0,0)
GPGPU-Sim PTX: 2200000 instructions simulated : ctaid=(43,0,0) tid=(31,0,0)
GPGPU-Sim PTX: 2300000 instructions simulated : ctaid=(3,0,0) tid=(127,0,0)
GPGPU-Sim uArch: cycles simulated: 7000  inst.: 2281536 (ipc=325.9) sim_rate=325933 (inst/sec) elapsed = 0:0:00:07 / Wed May  1 12:43:20 2019
GPGPU-Sim PTX: 2400000 instructions simulated : ctaid=(65,0,0) tid=(31,0,0)
GPGPU-Sim PTX: 2500000 instructions simulated : ctaid=(89,0,0) tid=(31,0,0)
GPGPU-Sim PTX: 2600000 instructions simulated : ctaid=(31,0,0) tid=(63,0,0)
GPGPU-Sim PTX: 2700000 instructions simulated : ctaid=(83,0,0) tid=(95,0,0)
GPGPU-Sim uArch: cycles simulated: 8000  inst.: 2706560 (ipc=338.3) sim_rate=338320 (inst/sec) elapsed = 0:0:00:08 / Wed May  1 12:43:21 2019
GPGPU-Sim PTX: 2800000 instructions simulated : ctaid=(67,0,0) tid=(31,0,0)
GPGPU-Sim PTX: 2900000 instructions simulated : ctaid=(38,0,0) tid=(63,0,0)
GPGPU-Sim PTX: 3000000 instructions simulated : ctaid=(63,0,0) tid=(95,0,0)
GPGPU-Sim PTX: 3100000 instructions simulated : ctaid=(36,0,0) tid=(31,0,0)
GPGPU-Sim uArch: cycles simulated: 9500  inst.: 3154912 (ipc=332.1) sim_rate=350545 (inst/sec) elapsed = 0:0:00:09 / Wed May  1 12:43:22 2019
GPGPU-Sim PTX: 3200000 instructions simulated : ctaid=(27,0,0) tid=(31,0,0)
GPGPU-Sim PTX: 3300000 instructions simulated : ctaid=(33,0,0) tid=(95,0,0)
GPGPU-Sim PTX: 3400000 instructions simulated : ctaid=(26,0,0) tid=(31,0,0)
GPGPU-Sim PTX: 3500000 instructions simulated : ctaid=(47,0,0) tid=(95,0,0)
GPGPU-Sim PTX: 3600000 instructions simulated : ctaid=(97,0,0) tid=(95,0,0)
GPGPU-Sim uArch: cycles simulated: 11000  inst.: 3623040 (ipc=329.4) sim_rate=362304 (inst/sec) elapsed = 0:0:00:10 / Wed May  1 12:43:23 2019
GPGPU-Sim PTX: 3700000 instructions simulated : ctaid=(24,0,0) tid=(63,0,0)
GPGPU-Sim PTX: 3800000 instructions simulated : ctaid=(19,0,0) tid=(95,0,0)
GPGPU-Sim PTX: 3900000 instructions simulated : ctaid=(23,0,0) tid=(127,0,0)
GPGPU-Sim uArch: cycles simulated: 12000  inst.: 3962592 (ipc=330.2) sim_rate=360235 (inst/sec) elapsed = 0:0:00:11 / Wed May  1 12:43:24 2019
GPGPU-Sim PTX: 4000000 instructions simulated : ctaid=(21,0,0) tid=(95,0,0)
GPGPU-Sim PTX: 4100000 instructions simulated : ctaid=(19,0,0) tid=(31,0,0)
GPGPU-Sim PTX: 4200000 instructions simulated : ctaid=(44,0,0) tid=(95,0,0)
GPGPU-Sim PTX: 4300000 instructions simulated : ctaid=(5,0,0) tid=(63,0,0)
GPGPU-Sim PTX: 4400000 instructions simulated : ctaid=(16,0,0) tid=(63,0,0)
GPGPU-Sim uArch: cycles simulated: 13500  inst.: 4444832 (ipc=329.2) sim_rate=370402 (inst/sec) elapsed = 0:0:00:12 / Wed May  1 12:43:25 2019
GPGPU-Sim PTX: 4500000 instructions simulated : ctaid=(24,0,0) tid=(95,0,0)
GPGPU-Sim PTX: 4600000 instructions simulated : ctaid=(43,0,0) tid=(127,0,0)
GPGPU-Sim PTX: 4700000 instructions simulated : ctaid=(45,0,0) tid=(95,0,0)
GPGPU-Sim PTX: 4800000 instructions simulated : ctaid=(73,0,0) tid=(31,0,0)
GPGPU-Sim uArch: cycles simulated: 14500  inst.: 4814336 (ipc=332.0) sim_rate=370333 (inst/sec) elapsed = 0:0:00:13 / Wed May  1 12:43:26 2019
GPGPU-Sim PTX: 4900000 instructions simulated : ctaid=(76,0,0) tid=(95,0,0)
GPGPU-Sim PTX: 5000000 instructions simulated : ctaid=(58,0,0) tid=(63,0,0)
GPGPU-Sim PTX: 5100000 instructions simulated : ctaid=(41,0,0) tid=(95,0,0)
GPGPU-Sim PTX: 5200000 instructions simulated : ctaid=(53,0,0) tid=(31,0,0)
GPGPU-Sim PTX: 5300000 instructions simulated : ctaid=(58,0,0) tid=(31,0,0)
GPGPU-Sim uArch: cycles simulated: 16000  inst.: 5323072 (ipc=332.7) sim_rate=380219 (inst/sec) elapsed = 0:0:00:14 / Wed May  1 12:43:27 2019
GPGPU-Sim PTX: 5400000 instructions simulated : ctaid=(46,0,0) tid=(95,0,0)
GPGPU-Sim PTX: 5500000 instructions simulated : ctaid=(3,0,0) tid=(31,0,0)
GPGPU-Sim PTX: 5600000 instructions simulated : ctaid=(14,0,0) tid=(127,0,0)
GPGPU-Sim PTX: 5700000 instructions simulated : ctaid=(17,0,0) tid=(31,0,0)
GPGPU-Sim uArch: cycles simulated: 17000  inst.: 5674656 (ipc=333.8) sim_rate=378310 (inst/sec) elapsed = 0:0:00:15 / Wed May  1 12:43:28 2019
GPGPU-Sim PTX: 5800000 instructions simulated : ctaid=(45,0,0) tid=(31,0,0)
GPGPU-Sim PTX: 5900000 instructions simulated : ctaid=(8,0,0) tid=(95,0,0)
GPGPU-Sim PTX: 6000000 instructions simulated : ctaid=(16,0,0) tid=(31,0,0)
GPGPU-Sim PTX: 6100000 instructions simulated : ctaid=(92,0,0) tid=(31,0,0)
GPGPU-Sim PTX: 6200000 instructions simulated : ctaid=(21,0,0) tid=(31,0,0)
GPGPU-Sim uArch: cycles simulated: 18500  inst.: 6196704 (ipc=335.0) sim_rate=387294 (inst/sec) elapsed = 0:0:00:16 / Wed May  1 12:43:29 2019
GPGPU-Sim PTX: 6300000 instructions simulated : ctaid=(48,0,0) tid=(127,0,0)
GPGPU-Sim PTX: 6400000 instructions simulated : ctaid=(64,0,0) tid=(127,0,0)
GPGPU-Sim PTX: 6500000 instructions simulated : ctaid=(49,0,0) tid=(63,0,0)
GPGPU-Sim uArch: cycles simulated: 19500  inst.: 6514176 (ipc=334.1) sim_rate=383186 (inst/sec) elapsed = 0:0:00:17 / Wed May  1 12:43:30 2019
GPGPU-Sim PTX: 6600000 instructions simulated : ctaid=(33,0,0) tid=(95,0,0)
GPGPU-Sim PTX: 6700000 instructions simulated : ctaid=(3,0,0) tid=(127,0,0)
GPGPU-Sim PTX: 6800000 instructions simulated : ctaid=(73,0,0) tid=(63,0,0)
GPGPU-Sim PTX: 6900000 instructions simulated : ctaid=(31,0,0) tid=(95,0,0)
GPGPU-Sim PTX: 7000000 instructions simulated : ctaid=(16,0,0) tid=(127,0,0)
GPGPU-Sim uArch: cycles simulated: 21000  inst.: 7019488 (ipc=334.3) sim_rate=389971 (inst/sec) elapsed = 0:0:00:18 / Wed May  1 12:43:31 2019
GPGPU-Sim PTX: 7100000 instructions simulated : ctaid=(23,0,0) tid=(63,0,0)
GPGPU-Sim PTX: 7200000 instructions simulated : ctaid=(80,0,0) tid=(31,0,0)
GPGPU-Sim PTX: 7300000 instructions simulated : ctaid=(60,0,0) tid=(95,0,0)
GPGPU-Sim PTX: 7400000 instructions simulated : ctaid=(21,0,0) tid=(63,0,0)
GPGPU-Sim uArch: cycles simulated: 22000  inst.: 7374656 (ipc=335.2) sim_rate=388139 (inst/sec) elapsed = 0:0:00:19 / Wed May  1 12:43:32 2019
GPGPU-Sim PTX: 7500000 instructions simulated : ctaid=(79,0,0) tid=(31,0,0)
GPGPU-Sim PTX: 7600000 instructions simulated : ctaid=(70,0,0) tid=(127,0,0)
GPGPU-Sim PTX: 7700000 instructions simulated : ctaid=(4,0,0) tid=(31,0,0)
GPGPU-Sim PTX: 7800000 instructions simulated : ctaid=(6,0,0) tid=(95,0,0)
GPGPU-Sim PTX: 7900000 instructions simulated : ctaid=(37,0,0) tid=(31,0,0)
GPGPU-Sim uArch: cycles simulated: 23500  inst.: 7909248 (ipc=336.6) sim_rate=395462 (inst/sec) elapsed = 0:0:00:20 / Wed May  1 12:43:33 2019
GPGPU-Sim PTX: 8000000 instructions simulated : ctaid=(35,0,0) tid=(31,0,0)
GPGPU-Sim PTX: 8100000 instructions simulated : ctaid=(3,0,0) tid=(31,0,0)
GPGPU-Sim PTX: 8200000 instructions simulated : ctaid=(21,0,0) tid=(127,0,0)
GPGPU-Sim uArch: cycles simulated: 24500  inst.: 8259296 (ipc=337.1) sim_rate=393299 (inst/sec) elapsed = 0:0:00:21 / Wed May  1 12:43:34 2019
GPGPU-Sim PTX: 8300000 instructions simulated : ctaid=(58,0,0) tid=(31,0,0)
GPGPU-Sim PTX: 8400000 instructions simulated : ctaid=(52,0,0) tid=(95,0,0)
GPGPU-Sim PTX: 8500000 instructions simulated : ctaid=(12,0,0) tid=(95,0,0)
GPGPU-Sim PTX: 8600000 instructions simulated : ctaid=(19,0,0) tid=(127,0,0)
GPGPU-Sim uArch: cycles simulated: 25500  inst.: 8596224 (ipc=337.1) sim_rate=390737 (inst/sec) elapsed = 0:0:00:22 / Wed May  1 12:43:35 2019
GPGPU-Sim PTX: 8700000 instructions simulated : ctaid=(72,0,0) tid=(31,0,0)
GPGPU-Sim PTX: 8800000 instructions simulated : ctaid=(17,0,0) tid=(95,0,0)
GPGPU-Sim PTX: 8900000 instructions simulated : ctaid=(7,0,0) tid=(31,0,0)
GPGPU-Sim PTX: 9000000 instructions simulated : ctaid=(0,0,0) tid=(63,0,0)
GPGPU-Sim PTX: 9100000 instructions simulated : ctaid=(18,0,0) tid=(95,0,0)
GPGPU-Sim uArch: cycles simulated: 27000  inst.: 9100384 (ipc=337.1) sim_rate=395668 (inst/sec) elapsed = 0:0:00:23 / Wed May  1 12:43:36 2019
GPGPU-Sim PTX: 9200000 instructions simulated : ctaid=(11,0,0) tid=(127,0,0)
GPGPU-Sim PTX: 9300000 instructions simulated : ctaid=(5,0,0) tid=(127,0,0)
GPGPU-Sim PTX: 9400000 instructions simulated : ctaid=(39,0,0) tid=(31,0,0)
GPGPU-Sim PTX: 9500000 instructions simulated : ctaid=(4,0,0) tid=(95,0,0)
GPGPU-Sim PTX: 9600000 instructions simulated : ctaid=(16,0,0) tid=(31,0,0)
GPGPU-Sim uArch: cycles simulated: 28500  inst.: 9625856 (ipc=337.7) sim_rate=401077 (inst/sec) elapsed = 0:0:00:24 / Wed May  1 12:43:37 2019
GPGPU-Sim PTX: 9700000 instructions simulated : ctaid=(38,0,0) tid=(31,0,0)
GPGPU-Sim PTX: 9800000 instructions simulated : ctaid=(58,0,0) tid=(31,0,0)
GPGPU-Sim PTX: 9900000 instructions simulated : ctaid=(29,0,0) tid=(63,0,0)
GPGPU-Sim PTX: 10000000 instructions simulated : ctaid=(25,0,0) tid=(63,0,0)
GPGPU-Sim uArch: cycles simulated: 29500  inst.: 9985376 (ipc=338.5) sim_rate=399415 (inst/sec) elapsed = 0:0:00:25 / Wed May  1 12:43:38 2019
GPGPU-Sim PTX: 10100000 instructions simulated : ctaid=(37,0,0) tid=(127,0,0)
GPGPU-Sim PTX: 10200000 instructions simulated : ctaid=(16,0,0) tid=(127,0,0)
GPGPU-Sim PTX: 10300000 instructions simulated : ctaid=(38,0,0) tid=(63,0,0)
GPGPU-Sim uArch: cycles simulated: 30500  inst.: 10312832 (ipc=338.1) sim_rate=396647 (inst/sec) elapsed = 0:0:00:26 / Wed May  1 12:43:39 2019
GPGPU-Sim PTX: 10400000 instructions simulated : ctaid=(20,0,0) tid=(31,0,0)
GPGPU-Sim PTX: 10500000 instructions simulated : ctaid=(9,0,0) tid=(63,0,0)
GPGPU-Sim PTX: 10600000 instructions simulated : ctaid=(63,0,0) tid=(31,0,0)
GPGPU-Sim PTX: 10700000 instructions simulated : ctaid=(6,0,0) tid=(31,0,0)
GPGPU-Sim PTX: 10800000 instructions simulated : ctaid=(21,0,0) tid=(63,0,0)
GPGPU-Sim uArch: cycles simulated: 32000  inst.: 10780640 (ipc=336.9) sim_rate=399282 (inst/sec) elapsed = 0:0:00:27 / Wed May  1 12:43:40 2019
GPGPU-Sim PTX: 10900000 instructions simulated : ctaid=(62,0,0) tid=(127,0,0)
GPGPU-Sim PTX: 11000000 instructions simulated : ctaid=(78,0,0) tid=(31,0,0)
GPGPU-Sim PTX: 11100000 instructions simulated : ctaid=(74,0,0) tid=(95,0,0)
GPGPU-Sim uArch: cycles simulated: 33000  inst.: 11124096 (ipc=337.1) sim_rate=397289 (inst/sec) elapsed = 0:0:00:28 / Wed May  1 12:43:41 2019
GPGPU-Sim PTX: 11200000 instructions simulated : ctaid=(32,0,0) tid=(127,0,0)
GPGPU-Sim PTX: 11300000 instructions simulated : ctaid=(6,0,0) tid=(63,0,0)
GPGPU-Sim PTX: 11400000 instructions simulated : ctaid=(9,0,0) tid=(63,0,0)
GPGPU-Sim PTX: 11500000 instructions simulated : ctaid=(13,0,0) tid=(31,0,0)
GPGPU-Sim PTX: 11600000 instructions simulated : ctaid=(45,0,0) tid=(31,0,0)
GPGPU-Sim PTX: 11700000 instructions simulated : ctaid=(13,0,0) tid=(127,0,0)
GPGPU-Sim uArch: cycles simulated: 34500  inst.: 11669984 (ipc=338.3) sim_rate=402413 (inst/sec) elapsed = 0:0:00:29 / Wed May  1 12:43:42 2019
GPGPU-Sim PTX: 11800000 instructions simulated : ctaid=(101,0,0) tid=(31,0,0)
GPGPU-Sim PTX: 11900000 instructions simulated : ctaid=(103,0,0) tid=(31,0,0)
GPGPU-Sim PTX: 12000000 instructions simulated : ctaid=(27,0,0) tid=(95,0,0)
GPGPU-Sim uArch: cycles simulated: 35500  inst.: 12000032 (ipc=338.0) sim_rate=400001 (inst/sec) elapsed = 0:0:00:30 / Wed May  1 12:43:43 2019
GPGPU-Sim PTX: 12100000 instructions simulated : ctaid=(3,0,0) tid=(63,0,0)
GPGPU-Sim PTX: 12200000 instructions simulated : ctaid=(24,0,0) tid=(95,0,0)
GPGPU-Sim PTX: 12300000 instructions simulated : ctaid=(8,0,0) tid=(127,0,0)
GPGPU-Sim PTX: 12400000 instructions simulated : ctaid=(44,0,0) tid=(63,0,0)
GPGPU-Sim PTX: 12500000 instructions simulated : ctaid=(29,0,0) tid=(63,0,0)
GPGPU-Sim uArch: cycles simulated: 37000  inst.: 12520544 (ipc=338.4) sim_rate=403888 (inst/sec) elapsed = 0:0:00:31 / Wed May  1 12:43:44 2019
GPGPU-Sim PTX: 12600000 instructions simulated : ctaid=(8,0,0) tid=(63,0,0)
GPGPU-Sim PTX: 12700000 instructions simulated : ctaid=(46,0,0) tid=(63,0,0)
GPGPU-Sim PTX: 12800000 instructions simulated : ctaid=(21,0,0) tid=(127,0,0)
GPGPU-Sim uArch: cycles simulated: 38000  inst.: 12855232 (ipc=338.3) sim_rate=401726 (inst/sec) elapsed = 0:0:00:32 / Wed May  1 12:43:45 2019
GPGPU-Sim PTX: 12900000 instructions simulated : ctaid=(71,0,0) tid=(127,0,0)
GPGPU-Sim PTX: 13000000 instructions simulated : ctaid=(12,0,0) tid=(31,0,0)
GPGPU-Sim PTX: 13100000 instructions simulated : ctaid=(9,0,0) tid=(63,0,0)
GPGPU-Sim PTX: 13200000 instructions simulated : ctaid=(61,0,0) tid=(31,0,0)
GPGPU-Sim PTX: 13300000 instructions simulated : ctaid=(64,0,0) tid=(63,0,0)
GPGPU-Sim PTX: 13400000 instructions simulated : ctaid=(21,0,0) tid=(31,0,0)
GPGPU-Sim uArch: cycles simulated: 39500  inst.: 13382432 (ipc=338.8) sim_rate=405528 (inst/sec) elapsed = 0:0:00:33 / Wed May  1 12:43:46 2019
GPGPU-Sim PTX: 13500000 instructions simulated : ctaid=(33,0,0) tid=(63,0,0)
GPGPU-Sim PTX: 13600000 instructions simulated : ctaid=(36,0,0) tid=(31,0,0)
GPGPU-Sim PTX: 13700000 instructions simulated : ctaid=(41,0,0) tid=(31,0,0)
GPGPU-Sim uArch: cycles simulated: 40500  inst.: 13734752 (ipc=339.1) sim_rate=403963 (inst/sec) elapsed = 0:0:00:34 / Wed May  1 12:43:47 2019
GPGPU-Sim PTX: 13800000 instructions simulated : ctaid=(80,0,0) tid=(95,0,0)
GPGPU-Sim PTX: 13900000 instructions simulated : ctaid=(11,0,0) tid=(63,0,0)
GPGPU-Sim PTX: 14000000 instructions simulated : ctaid=(49,0,0) tid=(31,0,0)
GPGPU-Sim PTX: 14100000 instructions simulated : ctaid=(8,0,0) tid=(31,0,0)
GPGPU-Sim uArch: cycles simulated: 41500  inst.: 14073856 (ipc=339.1) sim_rate=402110 (inst/sec) elapsed = 0:0:00:35 / Wed May  1 12:43:48 2019
GPGPU-Sim PTX: 14200000 instructions simulated : ctaid=(0,0,0) tid=(127,0,0)
GPGPU-Sim PTX: 14300000 instructions simulated : ctaid=(78,0,0) tid=(95,0,0)
GPGPU-Sim PTX: 14400000 instructions simulated : ctaid=(11,0,0) tid=(127,0,0)
GPGPU-Sim PTX: 14500000 instructions simulated : ctaid=(16,0,0) tid=(127,0,0)
GPGPU-Sim PTX: 14600000 instructions simulated : ctaid=(13,0,0) tid=(95,0,0)
GPGPU-Sim uArch: cycles simulated: 43000  inst.: 14625120 (ipc=340.1) sim_rate=406253 (inst/sec) elapsed = 0:0:00:36 / Wed May  1 12:43:49 2019
GPGPU-Sim PTX: 14700000 instructions simulated : ctaid=(33,0,0) tid=(95,0,0)
GPGPU-Sim PTX: 14800000 instructions simulated : ctaid=(0,0,0) tid=(127,0,0)
GPGPU-Sim PTX: 14900000 instructions simulated : ctaid=(34,0,0) tid=(31,0,0)
GPGPU-Sim uArch: cycles simulated: 44000  inst.: 14947200 (ipc=339.7) sim_rate=403978 (inst/sec) elapsed = 0:0:00:37 / Wed May  1 12:43:50 2019
GPGPU-Sim PTX: 15000000 instructions simulated : ctaid=(12,0,0) tid=(31,0,0)
GPGPU-Sim PTX: 15100000 instructions simulated : ctaid=(46,0,0) tid=(31,0,0)
GPGPU-Sim PTX: 15200000 instructions simulated : ctaid=(25,0,0) tid=(63,0,0)
GPGPU-Sim PTX: 15300000 instructions simulated : ctaid=(9,0,0) tid=(31,0,0)
GPGPU-Sim PTX: 15400000 instructions simulated : ctaid=(10,0,0) tid=(31,0,0)
GPGPU-Sim uArch: cycles simulated: 45500  inst.: 15462816 (ipc=339.8) sim_rate=406916 (inst/sec) elapsed = 0:0:00:38 / Wed May  1 12:43:51 2019
GPGPU-Sim PTX: 15500000 instructions simulated : ctaid=(35,0,0) tid=(95,0,0)
GPGPU-Sim PTX: 15600000 instructions simulated : ctaid=(23,0,0) tid=(127,0,0)
GPGPU-Sim PTX: 15700000 instructions simulated : ctaid=(79,0,0) tid=(63,0,0)
GPGPU-Sim PTX: 15800000 instructions simulated : ctaid=(58,0,0) tid=(63,0,0)
GPGPU-Sim uArch: cycles simulated: 46500  inst.: 15791520 (ipc=339.6) sim_rate=404910 (inst/sec) elapsed = 0:0:00:39 / Wed May  1 12:43:52 2019
GPGPU-Sim PTX: 15900000 instructions simulated : ctaid=(19,0,0) tid=(95,0,0)
GPGPU-Sim PTX: 16000000 instructions simulated : ctaid=(62,0,0) tid=(31,0,0)
GPGPU-Sim PTX: 16100000 instructions simulated : ctaid=(86,0,0) tid=(31,0,0)
GPGPU-Sim PTX: 16200000 instructions simulated : ctaid=(74,0,0) tid=(63,0,0)
GPGPU-Sim PTX: 16300000 instructions simulated : ctaid=(79,0,0) tid=(95,0,0)
GPGPU-Sim uArch: cycles simulated: 48000  inst.: 16343616 (ipc=340.5) sim_rate=408590 (inst/sec) elapsed = 0:0:00:40 / Wed May  1 12:43:53 2019
GPGPU-Sim PTX: 16400000 instructions simulated : ctaid=(66,0,0) tid=(95,0,0)
GPGPU-Sim PTX: 16500000 instructions simulated : ctaid=(13,0,0) tid=(95,0,0)
GPGPU-Sim PTX: 16600000 instructions simulated : ctaid=(8,0,0) tid=(127,0,0)
GPGPU-Sim PTX: 16700000 instructions simulated : ctaid=(17,0,0) tid=(95,0,0)
GPGPU-Sim uArch: cycles simulated: 49000  inst.: 16689920 (ipc=340.6) sim_rate=407071 (inst/sec) elapsed = 0:0:00:41 / Wed May  1 12:43:54 2019
GPGPU-Sim PTX: 16800000 instructions simulated : ctaid=(44,0,0) tid=(63,0,0)
GPGPU-Sim PTX: 16900000 instructions simulated : ctaid=(24,0,0) tid=(127,0,0)
GPGPU-Sim PTX: 17000000 instructions simulated : ctaid=(64,0,0) tid=(31,0,0)
GPGPU-Sim PTX: 17100000 instructions simulated : ctaid=(81,0,0) tid=(95,0,0)
GPGPU-Sim PTX: 17200000 instructions simulated : ctaid=(23,0,0) tid=(31,0,0)
GPGPU-Sim uArch: cycles simulated: 50500  inst.: 17227936 (ipc=341.1) sim_rate=410188 (inst/sec) elapsed = 0:0:00:42 / Wed May  1 12:43:55 2019
GPGPU-Sim PTX: 17300000 instructions simulated : ctaid=(32,0,0) tid=(95,0,0)
GPGPU-Sim PTX: 17400000 instructions simulated : ctaid=(37,0,0) tid=(31,0,0)
GPGPU-Sim PTX: 17500000 instructions simulated : ctaid=(16,0,0) tid=(31,0,0)
GPGPU-Sim uArch: cycles simulated: 51500  inst.: 17565664 (ipc=341.1) sim_rate=408503 (inst/sec) elapsed = 0:0:00:43 / Wed May  1 12:43:56 2019
GPGPU-Sim PTX: 17600000 instructions simulated : ctaid=(60,0,0) tid=(31,0,0)
GPGPU-Sim PTX: 17700000 instructions simulated : ctaid=(75,0,0) tid=(95,0,0)
GPGPU-Sim PTX: 17800000 instructions simulated : ctaid=(51,0,0) tid=(31,0,0)
GPGPU-Sim PTX: 17900000 instructions simulated : ctaid=(57,0,0) tid=(95,0,0)
GPGPU-Sim PTX: 18000000 instructions simulated : ctaid=(18,0,0) tid=(95,0,0)
GPGPU-Sim PTX: 18100000 instructions simulated : ctaid=(30,0,0) tid=(95,0,0)
GPGPU-Sim uArch: cycles simulated: 53000  inst.: 18080256 (ipc=341.1) sim_rate=410914 (inst/sec) elapsed = 0:0:00:44 / Wed May  1 12:43:57 2019
GPGPU-Sim PTX: 18200000 instructions simulated : ctaid=(72,0,0) tid=(31,0,0)
GPGPU-Sim PTX: 18300000 instructions simulated : ctaid=(81,0,0) tid=(95,0,0)
GPGPU-Sim PTX: 18400000 instructions simulated : ctaid=(42,0,0) tid=(31,0,0)
GPGPU-Sim uArch: cycles simulated: 54000  inst.: 18426592 (ipc=341.2) sim_rate=409479 (inst/sec) elapsed = 0:0:00:45 / Wed May  1 12:43:58 2019
GPGPU-Sim PTX: 18500000 instructions simulated : ctaid=(56,0,0) tid=(63,0,0)
GPGPU-Sim PTX: 18600000 instructions simulated : ctaid=(40,0,0) tid=(127,0,0)
GPGPU-Sim PTX: 18700000 instructions simulated : ctaid=(55,0,0) tid=(127,0,0)
GPGPU-Sim PTX: 18800000 instructions simulated : ctaid=(7,0,0) tid=(31,0,0)
GPGPU-Sim PTX: 18900000 instructions simulated : ctaid=(79,0,0) tid=(63,0,0)
GPGPU-Sim uArch: cycles simulated: 55500  inst.: 18950560 (ipc=341.5) sim_rate=411968 (inst/sec) elapsed = 0:0:00:46 / Wed May  1 12:43:59 2019
GPGPU-Sim PTX: 19000000 instructions simulated : ctaid=(46,0,0) tid=(127,0,0)
GPGPU-Sim PTX: 19100000 instructions simulated : ctaid=(19,0,0) tid=(31,0,0)
GPGPU-Sim PTX: 19200000 instructions simulated : ctaid=(0,0,0) tid=(31,0,0)
GPGPU-Sim PTX: 19300000 instructions simulated : ctaid=(0,0,0) tid=(127,0,0)
GPGPU-Sim uArch: cycles simulated: 56500  inst.: 19289344 (ipc=341.4) sim_rate=410411 (inst/sec) elapsed = 0:0:00:47 / Wed May  1 12:44:00 2019
GPGPU-Sim PTX: 19400000 instructions simulated : ctaid=(69,0,0) tid=(127,0,0)
GPGPU-Sim PTX: 19500000 instructions simulated : ctaid=(43,0,0) tid=(127,0,0)
GPGPU-Sim PTX: 19600000 instructions simulated : ctaid=(6,0,0) tid=(31,0,0)
GPGPU-Sim PTX: 19700000 instructions simulated : ctaid=(32,0,0) tid=(63,0,0)
GPGPU-Sim PTX: 19800000 instructions simulated : ctaid=(93,0,0) tid=(95,0,0)
GPGPU-Sim uArch: cycles simulated: 58000  inst.: 19817472 (ipc=341.7) sim_rate=412864 (inst/sec) elapsed = 0:0:00:48 / Wed May  1 12:44:01 2019
GPGPU-Sim PTX: 19900000 instructions simulated : ctaid=(14,0,0) tid=(95,0,0)
GPGPU-Sim PTX: 20000000 instructions simulated : ctaid=(15,0,0) tid=(95,0,0)
GPGPU-Sim PTX: 20100000 instructions simulated : ctaid=(7,0,0) tid=(127,0,0)
GPGPU-Sim PTX: 20200000 instructions simulated : ctaid=(16,0,0) tid=(31,0,0)
GPGPU-Sim uArch: cycles simulated: 59000  inst.: 20179584 (ipc=342.0) sim_rate=411828 (inst/sec) elapsed = 0:0:00:49 / Wed May  1 12:44:02 2019
GPGPU-Sim PTX: 20300000 instructions simulated : ctaid=(12,0,0) tid=(127,0,0)
GPGPU-Sim PTX: 20400000 instructions simulated : ctaid=(54,0,0) tid=(127,0,0)
GPGPU-Sim PTX: 20500000 instructions simulated : ctaid=(27,0,0) tid=(31,0,0)
GPGPU-Sim PTX: 20600000 instructions simulated : ctaid=(58,0,0) tid=(95,0,0)
GPGPU-Sim PTX: 20700000 instructions simulated : ctaid=(25,0,0) tid=(127,0,0)
GPGPU-Sim uArch: cycles simulated: 60500  inst.: 20696288 (ipc=342.1) sim_rate=413925 (inst/sec) elapsed = 0:0:00:50 / Wed May  1 12:44:03 2019
GPGPU-Sim PTX: 20800000 instructions simulated : ctaid=(57,0,0) tid=(31,0,0)
GPGPU-Sim PTX: 20900000 instructions simulated : ctaid=(32,0,0) tid=(127,0,0)
GPGPU-Sim PTX: 21000000 instructions simulated : ctaid=(67,0,0) tid=(127,0,0)
GPGPU-Sim uArch: cycles simulated: 61500  inst.: 21035360 (ipc=342.0) sim_rate=412458 (inst/sec) elapsed = 0:0:00:51 / Wed May  1 12:44:04 2019
GPGPU-Sim PTX: 21100000 instructions simulated : ctaid=(84,0,0) tid=(95,0,0)
GPGPU-Sim PTX: 21200000 instructions simulated : ctaid=(56,0,0) tid=(95,0,0)
GPGPU-Sim PTX: 21300000 instructions simulated : ctaid=(86,0,0) tid=(31,0,0)
GPGPU-Sim PTX: 21400000 instructions simulated : ctaid=(22,0,0) tid=(127,0,0)
GPGPU-Sim PTX: 21500000 instructions simulated : ctaid=(49,0,0) tid=(127,0,0)
GPGPU-Sim uArch: cycles simulated: 63000  inst.: 21557408 (ipc=342.2) sim_rate=414565 (inst/sec) elapsed = 0:0:00:52 / Wed May  1 12:44:05 2019
GPGPU-Sim PTX: 21600000 instructions simulated : ctaid=(17,0,0) tid=(127,0,0)
GPGPU-Sim PTX: 21700000 instructions simulated : ctaid=(2,0,0) tid=(127,0,0)
GPGPU-Sim PTX: 21800000 instructions simulated : ctaid=(17,0,0) tid=(95,0,0)
GPGPU-Sim PTX: 21900000 instructions simulated : ctaid=(32,0,0) tid=(31,0,0)
GPGPU-Sim uArch: cycles simulated: 64000  inst.: 21911264 (ipc=342.4) sim_rate=413420 (inst/sec) elapsed = 0:0:00:53 / Wed May  1 12:44:06 2019
GPGPU-Sim PTX: 22000000 instructions simulated : ctaid=(77,0,0) tid=(127,0,0)
GPGPU-Sim PTX: 22100000 instructions simulated : ctaid=(2,0,0) tid=(31,0,0)
GPGPU-Sim PTX: 22200000 instructions simulated : ctaid=(63,0,0) tid=(95,0,0)
GPGPU-Sim PTX: 22300000 instructions simulated : ctaid=(0,0,0) tid=(95,0,0)
GPGPU-Sim PTX: 22400000 instructions simulated : ctaid=(14,0,0) tid=(63,0,0)
GPGPU-Sim uArch: cycles simulated: 65500  inst.: 22440864 (ipc=342.6) sim_rate=415571 (inst/sec) elapsed = 0:0:00:54 / Wed May  1 12:44:07 2019
GPGPU-Sim PTX: 22500000 instructions simulated : ctaid=(73,0,0) tid=(31,0,0)
GPGPU-Sim PTX: 22600000 instructions simulated : ctaid=(23,0,0) tid=(95,0,0)
GPGPU-Sim PTX: 22700000 instructions simulated : ctaid=(22,0,0) tid=(95,0,0)
GPGPU-Sim PTX: 22800000 instructions simulated : ctaid=(2,0,0) tid=(95,0,0)
GPGPU-Sim uArch: cycles simulated: 66500  inst.: 22779712 (ipc=342.6) sim_rate=414176 (inst/sec) elapsed = 0:0:00:55 / Wed May  1 12:44:08 2019
GPGPU-Sim PTX: 22900000 instructions simulated : ctaid=(8,0,0) tid=(95,0,0)
GPGPU-Sim PTX: 23000000 instructions simulated : ctaid=(61,0,0) tid=(95,0,0)
GPGPU-Sim PTX: 23100000 instructions simulated : ctaid=(60,0,0) tid=(95,0,0)
GPGPU-Sim PTX: 23200000 instructions simulated : ctaid=(24,0,0) tid=(127,0,0)
GPGPU-Sim PTX: 23300000 instructions simulated : ctaid=(47,0,0) tid=(31,0,0)
GPGPU-Sim uArch: cycles simulated: 68000  inst.: 23310656 (ipc=342.8) sim_rate=416261 (inst/sec) elapsed = 0:0:00:56 / Wed May  1 12:44:09 2019
GPGPU-Sim PTX: 23400000 instructions simulated : ctaid=(12,0,0) tid=(31,0,0)
GPGPU-Sim PTX: 23500000 instructions simulated : ctaid=(24,0,0) tid=(63,0,0)
GPGPU-Sim PTX: 23600000 instructions simulated : ctaid=(14,0,0) tid=(127,0,0)
GPGPU-Sim uArch: cycles simulated: 69000  inst.: 23663616 (ipc=343.0) sim_rate=415151 (inst/sec) elapsed = 0:0:00:57 / Wed May  1 12:44:10 2019
GPGPU-Sim PTX: 23700000 instructions simulated : ctaid=(58,0,0) tid=(63,0,0)
GPGPU-Sim PTX: 23800000 instructions simulated : ctaid=(6,0,0) tid=(95,0,0)
GPGPU-Sim PTX: 23900000 instructions simulated : ctaid=(78,0,0) tid=(127,0,0)
GPGPU-Sim PTX: 24000000 instructions simulated : ctaid=(2,0,0) tid=(63,0,0)
GPGPU-Sim PTX: 24100000 instructions simulated : ctaid=(40,0,0) tid=(95,0,0)
GPGPU-Sim PTX: 24200000 instructions simulated : ctaid=(28,0,0) tid=(63,0,0)
GPGPU-Sim uArch: cycles simulated: 70500  inst.: 24170944 (ipc=342.9) sim_rate=416740 (inst/sec) elapsed = 0:0:00:58 / Wed May  1 12:44:11 2019
GPGPU-Sim PTX: 24300000 instructions simulated : ctaid=(4,0,0) tid=(63,0,0)
GPGPU-Sim PTX: 24400000 instructions simulated : ctaid=(76,0,0) tid=(31,0,0)
GPGPU-Sim PTX: 24500000 instructions simulated : ctaid=(35,0,0) tid=(63,0,0)
GPGPU-Sim uArch: cycles simulated: 71500  inst.: 24540416 (ipc=343.2) sim_rate=415939 (inst/sec) elapsed = 0:0:00:59 / Wed May  1 12:44:12 2019
GPGPU-Sim PTX: 24600000 instructions simulated : ctaid=(56,0,0) tid=(95,0,0)
GPGPU-Sim PTX: 24700000 instructions simulated : ctaid=(79,0,0) tid=(95,0,0)
GPGPU-Sim PTX: 24800000 instructions simulated : ctaid=(17,0,0) tid=(127,0,0)
GPGPU-Sim PTX: 24900000 instructions simulated : ctaid=(37,0,0) tid=(31,0,0)
GPGPU-Sim PTX: 25000000 instructions simulated : ctaid=(70,0,0) tid=(127,0,0)
GPGPU-Sim uArch: cycles simulated: 73000  inst.: 25054400 (ipc=343.2) sim_rate=417573 (inst/sec) elapsed = 0:0:01:00 / Wed May  1 12:44:13 2019
GPGPU-Sim PTX: 25100000 instructions simulated : ctaid=(27,0,0) tid=(31,0,0)
GPGPU-Sim PTX: 25200000 instructions simulated : ctaid=(9,0,0) tid=(63,0,0)
GPGPU-Sim PTX: 25300000 instructions simulated : ctaid=(10,0,0) tid=(95,0,0)
GPGPU-Sim PTX: 25400000 instructions simulated : ctaid=(25,0,0) tid=(31,0,0)
GPGPU-Sim uArch: cycles simulated: 74000  inst.: 25408160 (ipc=343.4) sim_rate=416527 (inst/sec) elapsed = 0:0:01:01 / Wed May  1 12:44:14 2019
GPGPU-Sim PTX: 25500000 instructions simulated : ctaid=(25,0,0) tid=(127,0,0)
GPGPU-Sim PTX: 25600000 instructions simulated : ctaid=(29,0,0) tid=(95,0,0)
GPGPU-Sim PTX: 25700000 instructions simulated : ctaid=(2,0,0) tid=(63,0,0)
GPGPU-Sim PTX: 25800000 instructions simulated : ctaid=(54,0,0) tid=(31,0,0)
GPGPU-Sim PTX: 25900000 instructions simulated : ctaid=(10,0,0) tid=(63,0,0)
GPGPU-Sim uArch: cycles simulated: 75500  inst.: 25924928 (ipc=343.4) sim_rate=418144 (inst/sec) elapsed = 0:0:01:02 / Wed May  1 12:44:15 2019
GPGPU-Sim PTX: 26000000 instructions simulated : ctaid=(94,0,0) tid=(31,0,0)
GPGPU-Sim PTX: 26100000 instructions simulated : ctaid=(21,0,0) tid=(63,0,0)
GPGPU-Sim PTX: 26200000 instructions simulated : ctaid=(19,0,0) tid=(95,0,0)
GPGPU-Sim PTX: 26300000 instructions simulated : ctaid=(9,0,0) tid=(127,0,0)
GPGPU-Sim PTX: 26400000 instructions simulated : ctaid=(44,0,0) tid=(127,0,0)
GPGPU-Sim uArch: cycles simulated: 77000  inst.: 26429472 (ipc=343.2) sim_rate=419515 (inst/sec) elapsed = 0:0:01:03 / Wed May  1 12:44:16 2019
GPGPU-Sim PTX: 26500000 instructions simulated : ctaid=(5,0,0) tid=(127,0,0)
GPGPU-Sim PTX: 26600000 instructions simulated : ctaid=(36,0,0) tid=(95,0,0)
GPGPU-Sim PTX: 26700000 instructions simulated : ctaid=(10,0,0) tid=(31,0,0)
GPGPU-Sim uArch: cycles simulated: 78000  inst.: 26746848 (ipc=342.9) sim_rate=417919 (inst/sec) elapsed = 0:0:01:04 / Wed May  1 12:44:17 2019
GPGPU-Sim PTX: 26800000 instructions simulated : ctaid=(65,0,0) tid=(31,0,0)
GPGPU-Sim PTX: 26900000 instructions simulated : ctaid=(17,0,0) tid=(95,0,0)
GPGPU-Sim PTX: 27000000 instructions simulated : ctaid=(11,0,0) tid=(31,0,0)
GPGPU-Sim PTX: 27100000 instructions simulated : ctaid=(32,0,0) tid=(95,0,0)
GPGPU-Sim PTX: 27200000 instructions simulated : ctaid=(39,0,0) tid=(31,0,0)
GPGPU-Sim uArch: cycles simulated: 79500  inst.: 27251904 (ipc=342.8) sim_rate=419260 (inst/sec) elapsed = 0:0:01:05 / Wed May  1 12:44:18 2019
GPGPU-Sim PTX: 27300000 instructions simulated : ctaid=(49,0,0) tid=(31,0,0)
GPGPU-Sim PTX: 27400000 instructions simulated : ctaid=(97,0,0) tid=(95,0,0)
GPGPU-Sim PTX: 27500000 instructions simulated : ctaid=(38,0,0) tid=(127,0,0)
GPGPU-Sim PTX: 27600000 instructions simulated : ctaid=(56,0,0) tid=(95,0,0)
GPGPU-Sim uArch: cycles simulated: 80500  inst.: 27605664 (ipc=342.9) sim_rate=418267 (inst/sec) elapsed = 0:0:01:06 / Wed May  1 12:44:19 2019
GPGPU-Sim PTX: 27700000 instructions simulated : ctaid=(32,0,0) tid=(31,0,0)
GPGPU-Sim PTX: 27800000 instructions simulated : ctaid=(75,0,0) tid=(95,0,0)
GPGPU-Sim PTX: 27900000 instructions simulated : ctaid=(46,0,0) tid=(31,0,0)
GPGPU-Sim PTX: 28000000 instructions simulated : ctaid=(90,0,0) tid=(95,0,0)
GPGPU-Sim uArch: cycles simulated: 82000  inst.: 28053824 (ipc=342.1) sim_rate=418713 (inst/sec) elapsed = 0:0:01:07 / Wed May  1 12:44:20 2019
GPGPU-Sim PTX: 28100000 instructions simulated : ctaid=(7,0,0) tid=(63,0,0)
GPGPU-Sim PTX: 28200000 instructions simulated : ctaid=(74,0,0) tid=(31,0,0)
GPGPU-Sim PTX: 28300000 instructions simulated : ctaid=(60,0,0) tid=(95,0,0)
GPGPU-Sim PTX: 28400000 instructions simulated : ctaid=(87,0,0) tid=(127,0,0)
GPGPU-Sim PTX: 28500000 instructions simulated : ctaid=(54,0,0) tid=(95,0,0)
GPGPU-Sim uArch: cycles simulated: 83500  inst.: 28500192 (ipc=341.3) sim_rate=419120 (inst/sec) elapsed = 0:0:01:08 / Wed May  1 12:44:21 2019
GPGPU-Sim PTX: 28600000 instructions simulated : ctaid=(38,0,0) tid=(127,0,0)
GPGPU-Sim PTX: 28700000 instructions simulated : ctaid=(111,0,0) tid=(95,0,0)
GPGPU-Sim PTX: 28800000 instructions simulated : ctaid=(30,0,0) tid=(127,0,0)
GPGPU-Sim uArch: cycles simulated: 84500  inst.: 28852320 (ipc=341.4) sim_rate=418149 (inst/sec) elapsed = 0:0:01:09 / Wed May  1 12:44:22 2019
GPGPU-Sim PTX: 28900000 instructions simulated : ctaid=(75,0,0) tid=(127,0,0)
GPGPU-Sim PTX: 29000000 instructions simulated : ctaid=(5,0,0) tid=(31,0,0)
GPGPU-Sim PTX: 29100000 instructions simulated : ctaid=(85,0,0) tid=(95,0,0)
GPGPU-Sim PTX: 29200000 instructions simulated : ctaid=(80,0,0) tid=(95,0,0)
GPGPU-Sim PTX: 29300000 instructions simulated : ctaid=(63,0,0) tid=(31,0,0)
GPGPU-Sim uArch: cycles simulated: 86000  inst.: 29320544 (ipc=340.9) sim_rate=418864 (inst/sec) elapsed = 0:0:01:10 / Wed May  1 12:44:23 2019
GPGPU-Sim PTX: 29400000 instructions simulated : ctaid=(59,0,0) tid=(63,0,0)
GPGPU-Sim PTX: 29500000 instructions simulated : ctaid=(40,0,0) tid=(95,0,0)
GPGPU-Sim PTX: 29600000 instructions simulated : ctaid=(75,0,0) tid=(31,0,0)
GPGPU-Sim uArch: cycles simulated: 87000  inst.: 29640128 (ipc=340.7) sim_rate=417466 (inst/sec) elapsed = 0:0:01:11 / Wed May  1 12:44:24 2019
GPGPU-Sim PTX: 29700000 instructions simulated : ctaid=(40,0,0) tid=(127,0,0)
GPGPU-Sim PTX: 29800000 instructions simulated : ctaid=(58,0,0) tid=(95,0,0)
GPGPU-Sim PTX: 29900000 instructions simulated : ctaid=(23,0,0) tid=(127,0,0)
GPGPU-Sim PTX: 30000000 instructions simulated : ctaid=(15,0,0) tid=(31,0,0)
GPGPU-Sim PTX: 30100000 instructions simulated : ctaid=(57,0,0) tid=(95,0,0)
GPGPU-Sim uArch: cycles simulated: 88500  inst.: 30085120 (ipc=339.9) sim_rate=417848 (inst/sec) elapsed = 0:0:01:12 / Wed May  1 12:44:25 2019
GPGPU-Sim PTX: 30200000 instructions simulated : ctaid=(16,0,0) tid=(31,0,0)
GPGPU-Sim PTX: 30300000 instructions simulated : ctaid=(51,0,0) tid=(95,0,0)
GPGPU-Sim PTX: 30400000 instructions simulated : ctaid=(62,0,0) tid=(95,0,0)
GPGPU-Sim PTX: 30500000 instructions simulated : ctaid=(15,0,0) tid=(63,0,0)
GPGPU-Sim uArch: cycles simulated: 90000  inst.: 30538432 (ipc=339.3) sim_rate=418334 (inst/sec) elapsed = 0:0:01:13 / Wed May  1 12:44:26 2019
GPGPU-Sim PTX: 30600000 instructions simulated : ctaid=(47,0,0) tid=(63,0,0)
GPGPU-Sim PTX: 30700000 instructions simulated : ctaid=(33,0,0) tid=(31,0,0)
GPGPU-Sim PTX: 30800000 instructions simulated : ctaid=(59,0,0) tid=(127,0,0)
GPGPU-Sim PTX: 30900000 instructions simulated : ctaid=(111,0,0) tid=(95,0,0)
GPGPU-Sim PTX: 31000000 instructions simulated : ctaid=(92,0,0) tid=(31,0,0)
GPGPU-Sim uArch: cycles simulated: 91500  inst.: 30998816 (ipc=338.8) sim_rate=418902 (inst/sec) elapsed = 0:0:01:14 / Wed May  1 12:44:27 2019
GPGPU-Sim PTX: 31100000 instructions simulated : ctaid=(94,0,0) tid=(95,0,0)
GPGPU-Sim PTX: 31200000 instructions simulated : ctaid=(84,0,0) tid=(95,0,0)
GPGPU-Sim PTX: 31300000 instructions simulated : ctaid=(6,0,0) tid=(63,0,0)
GPGPU-Sim uArch: cycles simulated: 92500  inst.: 31321376 (ipc=338.6) sim_rate=417618 (inst/sec) elapsed = 0:0:01:15 / Wed May  1 12:44:28 2019
GPGPU-Sim uArch: Shader 14 finished CTA #0 (92627,0), 7 CTAs running
GPGPU-Sim uArch: core: 14, cta: 0 initialized @(92628,0)
GPGPU-Sim PTX: 31400000 instructions simulated : ctaid=(17,0,0) tid=(31,0,0)
GPGPU-Sim PTX: 31500000 instructions simulated : ctaid=(55,0,0) tid=(95,0,0)
GPGPU-Sim PTX: 31600000 instructions simulated : ctaid=(49,0,0) tid=(63,0,0)
GPGPU-Sim PTX: 31700000 instructions simulated : ctaid=(37,0,0) tid=(63,0,0)
GPGPU-Sim uArch: Shader 12 finished CTA #0 (93940,0), 7 CTAs running
GPGPU-Sim uArch: core: 12, cta: 0 initialized @(93941,0)
GPGPU-Sim PTX: 31800000 instructions simulated : ctaid=(88,0,0) tid=(63,0,0)
GPGPU-Sim uArch: cycles simulated: 94000  inst.: 31766592 (ipc=337.9) sim_rate=417981 (inst/sec) elapsed = 0:0:01:16 / Wed May  1 12:44:29 2019
GPGPU-Sim PTX: 31900000 instructions simulated : ctaid=(57,0,0) tid=(31,0,0)
GPGPU-Sim PTX: 32000000 instructions simulated : ctaid=(72,0,0) tid=(95,0,0)
GPGPU-Sim PTX: 32100000 instructions simulated : ctaid=(88,0,0) tid=(95,0,0)
GPGPU-Sim PTX: 32200000 instructions simulated : ctaid=(20,0,0) tid=(63,0,0)
GPGPU-Sim uArch: cycles simulated: 95500  inst.: 32237728 (ipc=337.6) sim_rate=418671 (inst/sec) elapsed = 0:0:01:17 / Wed May  1 12:44:30 2019
GPGPU-Sim PTX: 32300000 instructions simulated : ctaid=(73,0,0) tid=(95,0,0)
GPGPU-Sim uArch: Shader 1 finished CTA #0 (95660,0), 7 CTAs running
GPGPU-Sim uArch: core:  1, cta: 0 initialized @(95661,0)
GPGPU-Sim PTX: 32400000 instructions simulated : ctaid=(95,0,0) tid=(31,0,0)
GPGPU-Sim PTX: 32500000 instructions simulated : ctaid=(60,0,0) tid=(31,0,0)
GPGPU-Sim uArch: Shader 3 finished CTA #0 (96322,0), 7 CTAs running
GPGPU-Sim uArch: core:  3, cta: 0 initialized @(96323,0)
GPGPU-Sim uArch: Shader 4 finished CTA #0 (96449,0), 7 CTAs running
GPGPU-Sim uArch: core:  4, cta: 0 initialized @(96450,0)
GPGPU-Sim uArch: cycles simulated: 96500  inst.: 32558592 (ipc=337.4) sim_rate=417417 (inst/sec) elapsed = 0:0:01:18 / Wed May  1 12:44:31 2019
GPGPU-Sim PTX: 32600000 instructions simulated : ctaid=(63,0,0) tid=(31,0,0)
GPGPU-Sim uArch: Shader 10 finished CTA #0 (96685,0), 7 CTAs running
GPGPU-Sim uArch: core: 10, cta: 0 initialized @(96686,0)
GPGPU-Sim uArch: Shader 12 finished CTA #1 (96709,0), 7 CTAs running
GPGPU-Sim uArch: core: 12, cta: 1 initialized @(96710,0)
GPGPU-Sim uArch: Shader 11 finished CTA #0 (96722,0), 7 CTAs running
GPGPU-Sim uArch: core: 11, cta: 0 initialized @(96723,0)
GPGPU-Sim PTX: 32700000 instructions simulated : ctaid=(120,0,0) tid=(127,0,0)
GPGPU-Sim uArch: Shader 5 finished CTA #0 (96844,0), 7 CTAs running
GPGPU-Sim uArch: core:  5, cta: 0 initialized @(96845,0)
GPGPU-Sim PTX: 32800000 instructions simulated : ctaid=(36,0,0) tid=(63,0,0)
GPGPU-Sim uArch: Shader 4 finished CTA #1 (97163,0), 7 CTAs running
GPGPU-Sim uArch: core:  4, cta: 1 initialized @(97164,0)
GPGPU-Sim PTX: 32900000 instructions simulated : ctaid=(78,0,0) tid=(127,0,0)
GPGPU-Sim uArch: Shader 9 finished CTA #0 (97372,0), 7 CTAs running
GPGPU-Sim uArch: core:  9, cta: 0 initialized @(97373,0)
GPGPU-Sim uArch: Shader 8 finished CTA #0 (97527,0), 7 CTAs running
GPGPU-Sim uArch: core:  8, cta: 0 initialized @(97528,0)
GPGPU-Sim PTX: 33000000 instructions simulated : ctaid=(66,0,0) tid=(127,0,0)
GPGPU-Sim uArch: Shader 0 finished CTA #0 (97918,0), 7 CTAs running
GPGPU-Sim uArch: core:  0, cta: 0 initialized @(97919,0)
GPGPU-Sim PTX: 33100000 instructions simulated : ctaid=(75,0,0) tid=(95,0,0)
GPGPU-Sim uArch: cycles simulated: 98000  inst.: 33074560 (ipc=337.5) sim_rate=418665 (inst/sec) elapsed = 0:0:01:19 / Wed May  1 12:44:32 2019
GPGPU-Sim PTX: 33200000 instructions simulated : ctaid=(75,0,0) tid=(95,0,0)
GPGPU-Sim uArch: Shader 13 finished CTA #0 (98363,0), 7 CTAs running
GPGPU-Sim uArch: core: 13, cta: 0 initialized @(98364,0)
GPGPU-Sim PTX: 33300000 instructions simulated : ctaid=(34,0,0) tid=(127,0,0)
GPGPU-Sim PTX: 33400000 instructions simulated : ctaid=(108,0,0) tid=(63,0,0)
GPGPU-Sim uArch: cycles simulated: 99000  inst.: 33417888 (ipc=337.6) sim_rate=417723 (inst/sec) elapsed = 0:0:01:20 / Wed May  1 12:44:33 2019
GPGPU-Sim PTX: 33500000 instructions simulated : ctaid=(28,0,0) tid=(63,0,0)
GPGPU-Sim PTX: 33600000 instructions simulated : ctaid=(119,0,0) tid=(95,0,0)
GPGPU-Sim PTX: 33700000 instructions simulated : ctaid=(59,0,0) tid=(63,0,0)
GPGPU-Sim uArch: Shader 10 finished CTA #1 (99956,0), 7 CTAs running
GPGPU-Sim uArch: core: 10, cta: 1 initialized @(99957,0)
GPGPU-Sim PTX: 33800000 instructions simulated : ctaid=(98,0,0) tid=(31,0,0)
GPGPU-Sim PTX: 33900000 instructions simulated : ctaid=(78,0,0) tid=(95,0,0)
GPGPU-Sim uArch: Shader 8 finished CTA #1 (100323,0), 7 CTAs running
GPGPU-Sim uArch: core:  8, cta: 1 initialized @(100324,0)
GPGPU-Sim uArch: Shader 7 finished CTA #0 (100350,0), 7 CTAs running
GPGPU-Sim uArch: core:  7, cta: 0 initialized @(100351,0)
GPGPU-Sim uArch: cycles simulated: 100500  inst.: 33939648 (ipc=337.7) sim_rate=419008 (inst/sec) elapsed = 0:0:01:21 / Wed May  1 12:44:34 2019
GPGPU-Sim uArch: Shader 2 finished CTA #0 (100526,0), 7 CTAs running
GPGPU-Sim uArch: core:  2, cta: 0 initialized @(100527,0)
GPGPU-Sim PTX: 34000000 instructions simulated : ctaid=(65,0,0) tid=(31,0,0)
GPGPU-Sim uArch: Shader 1 finished CTA #1 (100669,0), 7 CTAs running
GPGPU-Sim uArch: core:  1, cta: 1 initialized @(100670,0)
GPGPU-Sim PTX: 34100000 instructions simulated : ctaid=(110,0,0) tid=(95,0,0)
GPGPU-Sim PTX: 34200000 instructions simulated : ctaid=(72,0,0) tid=(127,0,0)
GPGPU-Sim PTX: 34300000 instructions simulated : ctaid=(69,0,0) tid=(95,0,0)
GPGPU-Sim uArch: Shader 6 finished CTA #0 (101459,0), 7 CTAs running
GPGPU-Sim uArch: core:  6, cta: 0 initialized @(101460,0)
GPGPU-Sim uArch: cycles simulated: 101500  inst.: 34314432 (ipc=338.1) sim_rate=418468 (inst/sec) elapsed = 0:0:01:22 / Wed May  1 12:44:35 2019
GPGPU-Sim PTX: 34400000 instructions simulated : ctaid=(109,0,0) tid=(95,0,0)
GPGPU-Sim PTX: 34500000 instructions simulated : ctaid=(92,0,0) tid=(127,0,0)
GPGPU-Sim uArch: Shader 9 finished CTA #1 (102194,0), 7 CTAs running
GPGPU-Sim uArch: core:  9, cta: 1 initialized @(102195,0)
GPGPU-Sim PTX: 34600000 instructions simulated : ctaid=(61,0,0) tid=(95,0,0)
GPGPU-Sim PTX: 34700000 instructions simulated : ctaid=(106,0,0) tid=(31,0,0)
GPGPU-Sim PTX: 34800000 instructions simulated : ctaid=(60,0,0) tid=(127,0,0)
GPGPU-Sim uArch: Shader 3 finished CTA #1 (102925,0), 7 CTAs running
GPGPU-Sim uArch: core:  3, cta: 1 initialized @(102926,0)
GPGPU-Sim uArch: cycles simulated: 103000  inst.: 34824288 (ipc=338.1) sim_rate=419569 (inst/sec) elapsed = 0:0:01:23 / Wed May  1 12:44:36 2019
GPGPU-Sim PTX: 34900000 instructions simulated : ctaid=(90,0,0) tid=(63,0,0)
GPGPU-Sim uArch: Shader 11 finished CTA #1 (103122,0), 7 CTAs running
GPGPU-Sim uArch: core: 11, cta: 1 initialized @(103123,0)
GPGPU-Sim PTX: 35000000 instructions simulated : ctaid=(102,0,0) tid=(31,0,0)
GPGPU-Sim PTX: 35100000 instructions simulated : ctaid=(82,0,0) tid=(63,0,0)
GPGPU-Sim PTX: 35200000 instructions simulated : ctaid=(127,0,0) tid=(31,0,0)
GPGPU-Sim uArch: cycles simulated: 104000  inst.: 35176128 (ipc=338.2) sim_rate=418763 (inst/sec) elapsed = 0:0:01:24 / Wed May  1 12:44:37 2019
GPGPU-Sim PTX: 35300000 instructions simulated : ctaid=(40,0,0) tid=(127,0,0)
GPGPU-Sim PTX: 35400000 instructions simulated : ctaid=(52,0,0) tid=(63,0,0)
GPGPU-Sim uArch: Shader 14 finished CTA #1 (104567,0), 7 CTAs running
GPGPU-Sim uArch: core: 14, cta: 1 initialized @(104568,0)
GPGPU-Sim uArch: Shader 2 finished CTA #1 (104679,0), 7 CTAs running
GPGPU-Sim uArch: core:  2, cta: 1 initialized @(104680,0)
GPGPU-Sim PTX: 35500000 instructions simulated : ctaid=(77,0,0) tid=(63,0,0)
GPGPU-Sim PTX: 35600000 instructions simulated : ctaid=(117,0,0) tid=(95,0,0)
GPGPU-Sim PTX: 35700000 instructions simulated : ctaid=(77,0,0) tid=(127,0,0)
GPGPU-Sim uArch: cycles simulated: 105500  inst.: 35706848 (ipc=338.5) sim_rate=420080 (inst/sec) elapsed = 0:0:01:25 / Wed May  1 12:44:38 2019
GPGPU-Sim PTX: 35800000 instructions simulated : ctaid=(58,0,0) tid=(127,0,0)
GPGPU-Sim uArch: Shader 7 finished CTA #1 (105806,0), 7 CTAs running
GPGPU-Sim uArch: core:  7, cta: 1 initialized @(105807,0)
GPGPU-Sim PTX: 35900000 instructions simulated : ctaid=(133,0,0) tid=(95,0,0)
GPGPU-Sim uArch: Shader 4 finished CTA #2 (105948,0), 7 CTAs running
GPGPU-Sim uArch: core:  4, cta: 2 initialized @(105949,0)
GPGPU-Sim uArch: Shader 0 finished CTA #1 (106045,0), 7 CTAs running
GPGPU-Sim uArch: core:  0, cta: 1 initialized @(106046,0)
GPGPU-Sim PTX: 36000000 instructions simulated : ctaid=(41,0,0) tid=(63,0,0)
GPGPU-Sim uArch: cycles simulated: 106500  inst.: 36053248 (ipc=338.5) sim_rate=419223 (inst/sec) elapsed = 0:0:01:26 / Wed May  1 12:44:39 2019
GPGPU-Sim PTX: 36100000 instructions simulated : ctaid=(61,0,0) tid=(31,0,0)
GPGPU-Sim uArch: Shader 13 finished CTA #1 (106691,0), 7 CTAs running
GPGPU-Sim uArch: core: 13, cta: 1 initialized @(106692,0)
GPGPU-Sim uArch: Shader 5 finished CTA #1 (106767,0), 7 CTAs running
GPGPU-Sim uArch: core:  5, cta: 1 initialized @(106768,0)
GPGPU-Sim PTX: 36200000 instructions simulated : ctaid=(119,0,0) tid=(31,0,0)
GPGPU-Sim PTX: 36300000 instructions simulated : ctaid=(69,0,0) tid=(127,0,0)
GPGPU-Sim uArch: Shader 1 finished CTA #2 (107181,0), 7 CTAs running
GPGPU-Sim uArch: core:  1, cta: 2 initialized @(107182,0)
GPGPU-Sim PTX: 36400000 instructions simulated : ctaid=(72,0,0) tid=(127,0,0)
GPGPU-Sim uArch: Shader 6 finished CTA #1 (107414,0), 7 CTAs running
GPGPU-Sim uArch: core:  6, cta: 1 initialized @(107415,0)
GPGPU-Sim uArch: cycles simulated: 107500  inst.: 36429120 (ipc=338.9) sim_rate=418725 (inst/sec) elapsed = 0:0:01:27 / Wed May  1 12:44:40 2019
GPGPU-Sim uArch: Shader 8 finished CTA #2 (107521,0), 7 CTAs running
GPGPU-Sim uArch: core:  8, cta: 2 initialized @(107522,0)
GPGPU-Sim PTX: 36500000 instructions simulated : ctaid=(62,0,0) tid=(127,0,0)
GPGPU-Sim PTX: 36600000 instructions simulated : ctaid=(85,0,0) tid=(31,0,0)
GPGPU-Sim uArch: Shader 14 finished CTA #2 (107841,0), 7 CTAs running
GPGPU-Sim uArch: core: 14, cta: 2 initialized @(107842,0)
GPGPU-Sim PTX: 36700000 instructions simulated : ctaid=(104,0,0) tid=(95,0,0)
GPGPU-Sim PTX: 36800000 instructions simulated : ctaid=(34,0,0) tid=(127,0,0)
GPGPU-Sim PTX: 36900000 instructions simulated : ctaid=(99,0,0) tid=(127,0,0)
GPGPU-Sim PTX: 37000000 instructions simulated : ctaid=(109,0,0) tid=(31,0,0)
GPGPU-Sim uArch: Shader 9 finished CTA #2 (108985,0), 7 CTAs running
GPGPU-Sim uArch: core:  9, cta: 2 initialized @(108986,0)
GPGPU-Sim uArch: cycles simulated: 109000  inst.: 36992768 (ipc=339.4) sim_rate=420372 (inst/sec) elapsed = 0:0:01:28 / Wed May  1 12:44:41 2019
GPGPU-Sim PTX: 37100000 instructions simulated : ctaid=(36,0,0) tid=(63,0,0)
GPGPU-Sim PTX: 37200000 instructions simulated : ctaid=(122,0,0) tid=(95,0,0)
GPGPU-Sim PTX: 37300000 instructions simulated : ctaid=(104,0,0) tid=(95,0,0)
GPGPU-Sim uArch: cycles simulated: 110000  inst.: 37335168 (ipc=339.4) sim_rate=419496 (inst/sec) elapsed = 0:0:01:29 / Wed May  1 12:44:42 2019
GPGPU-Sim PTX: 37400000 instructions simulated : ctaid=(139,0,0) tid=(63,0,0)
GPGPU-Sim uArch: Shader 2 finished CTA #2 (110160,0), 7 CTAs running
GPGPU-Sim uArch: core:  2, cta: 2 initialized @(110161,0)
GPGPU-Sim PTX: 37500000 instructions simulated : ctaid=(151,0,0) tid=(31,0,0)
GPGPU-Sim uArch: Shader 10 finished CTA #2 (110506,0), 7 CTAs running
GPGPU-Sim uArch: core: 10, cta: 2 initialized @(110507,0)
GPGPU-Sim PTX: 37600000 instructions simulated : ctaid=(35,0,0) tid=(63,0,0)
GPGPU-Sim uArch: Shader 0 finished CTA #2 (110678,0), 7 CTAs running
GPGPU-Sim uArch: core:  0, cta: 2 initialized @(110679,0)
GPGPU-Sim uArch: Shader 3 finished CTA #2 (110723,0), 7 CTAs running
GPGPU-Sim uArch: core:  3, cta: 2 initialized @(110724,0)
GPGPU-Sim PTX: 37700000 instructions simulated : ctaid=(112,0,0) tid=(31,0,0)
GPGPU-Sim uArch: Shader 12 finished CTA #2 (110973,0), 7 CTAs running
GPGPU-Sim uArch: core: 12, cta: 2 initialized @(110974,0)
GPGPU-Sim uArch: cycles simulated: 111000  inst.: 37699040 (ipc=339.6) sim_rate=418878 (inst/sec) elapsed = 0:0:01:30 / Wed May  1 12:44:43 2019
GPGPU-Sim PTX: 37800000 instructions simulated : ctaid=(70,0,0) tid=(31,0,0)
GPGPU-Sim PTX: 37900000 instructions simulated : ctaid=(40,0,0) tid=(127,0,0)
GPGPU-Sim uArch: Shader 7 finished CTA #2 (111549,0), 7 CTAs running
GPGPU-Sim uArch: core:  7, cta: 2 initialized @(111550,0)
GPGPU-Sim PTX: 38000000 instructions simulated : ctaid=(93,0,0) tid=(95,0,0)
GPGPU-Sim PTX: 38100000 instructions simulated : ctaid=(75,0,0) tid=(31,0,0)
GPGPU-Sim PTX: 38200000 instructions simulated : ctaid=(121,0,0) tid=(95,0,0)
GPGPU-Sim uArch: Shader 6 finished CTA #2 (112468,0), 7 CTAs running
GPGPU-Sim uArch: core:  6, cta: 2 initialized @(112469,0)
GPGPU-Sim uArch: cycles simulated: 112500  inst.: 38211360 (ipc=339.7) sim_rate=419905 (inst/sec) elapsed = 0:0:01:31 / Wed May  1 12:44:44 2019
GPGPU-Sim PTX: 38300000 instructions simulated : ctaid=(81,0,0) tid=(31,0,0)
GPGPU-Sim uArch: Shader 13 finished CTA #2 (112827,0), 7 CTAs running
GPGPU-Sim uArch: core: 13, cta: 2 initialized @(112828,0)
GPGPU-Sim PTX: 38400000 instructions simulated : ctaid=(70,0,0) tid=(127,0,0)
GPGPU-Sim uArch: Shader 11 finished CTA #2 (113061,0), 7 CTAs running
GPGPU-Sim uArch: core: 11, cta: 2 initialized @(113062,0)
GPGPU-Sim PTX: 38500000 instructions simulated : ctaid=(132,0,0) tid=(31,0,0)
GPGPU-Sim PTX: 38600000 instructions simulated : ctaid=(123,0,0) tid=(95,0,0)
GPGPU-Sim uArch: cycles simulated: 113500  inst.: 38565440 (ipc=339.8) sim_rate=419189 (inst/sec) elapsed = 0:0:01:32 / Wed May  1 12:44:45 2019
GPGPU-Sim PTX: 38700000 instructions simulated : ctaid=(88,0,0) tid=(31,0,0)
GPGPU-Sim PTX: 38800000 instructions simulated : ctaid=(110,0,0) tid=(31,0,0)
GPGPU-Sim PTX: 38900000 instructions simulated : ctaid=(59,0,0) tid=(63,0,0)
GPGPU-Sim PTX: 39000000 instructions simulated : ctaid=(108,0,0) tid=(95,0,0)
GPGPU-Sim PTX: 39100000 instructions simulated : ctaid=(98,0,0) tid=(31,0,0)
GPGPU-Sim uArch: cycles simulated: 115000  inst.: 39126400 (ipc=340.2) sim_rate=420713 (inst/sec) elapsed = 0:0:01:33 / Wed May  1 12:44:46 2019
GPGPU-Sim PTX: 39200000 instructions simulated : ctaid=(65,0,0) tid=(127,0,0)
GPGPU-Sim uArch: Shader 5 finished CTA #2 (115402,0), 7 CTAs running
GPGPU-Sim uArch: core:  5, cta: 2 initialized @(115403,0)
GPGPU-Sim PTX: 39300000 instructions simulated : ctaid=(79,0,0) tid=(31,0,0)
GPGPU-Sim PTX: 39400000 instructions simulated : ctaid=(90,0,0) tid=(31,0,0)
GPGPU-Sim PTX: 39500000 instructions simulated : ctaid=(130,0,0) tid=(63,0,0)
GPGPU-Sim uArch: cycles simulated: 116000  inst.: 39456832 (ipc=340.1) sim_rate=419753 (inst/sec) elapsed = 0:0:01:34 / Wed May  1 12:44:47 2019
GPGPU-Sim PTX: 39600000 instructions simulated : ctaid=(89,0,0) tid=(95,0,0)
GPGPU-Sim PTX: 39700000 instructions simulated : ctaid=(70,0,0) tid=(63,0,0)
GPGPU-Sim PTX: 39800000 instructions simulated : ctaid=(52,0,0) tid=(63,0,0)
GPGPU-Sim uArch: cycles simulated: 117000  inst.: 39818176 (ipc=340.3) sim_rate=419138 (inst/sec) elapsed = 0:0:01:35 / Wed May  1 12:44:48 2019
GPGPU-Sim PTX: 39900000 instructions simulated : ctaid=(94,0,0) tid=(31,0,0)
GPGPU-Sim PTX: 40000000 instructions simulated : ctaid=(54,0,0) tid=(63,0,0)
GPGPU-Sim uArch: Shader 12 finished CTA #3 (117447,0), 7 CTAs running
GPGPU-Sim uArch: core: 12, cta: 3 initialized @(117448,0)
GPGPU-Sim PTX: 40100000 instructions simulated : ctaid=(159,0,0) tid=(31,0,0)
GPGPU-Sim PTX: 40200000 instructions simulated : ctaid=(77,0,0) tid=(63,0,0)
GPGPU-Sim PTX: 40300000 instructions simulated : ctaid=(89,0,0) tid=(127,0,0)
GPGPU-Sim uArch: cycles simulated: 118500  inst.: 40350496 (ipc=340.5) sim_rate=420317 (inst/sec) elapsed = 0:0:01:36 / Wed May  1 12:44:49 2019
GPGPU-Sim PTX: 40400000 instructions simulated : ctaid=(123,0,0) tid=(31,0,0)
GPGPU-Sim PTX: 40500000 instructions simulated : ctaid=(68,0,0) tid=(127,0,0)
GPGPU-Sim PTX: 40600000 instructions simulated : ctaid=(57,0,0) tid=(63,0,0)
GPGPU-Sim PTX: 40700000 instructions simulated : ctaid=(74,0,0) tid=(127,0,0)
GPGPU-Sim uArch: cycles simulated: 119500  inst.: 40703648 (ipc=340.6) sim_rate=419625 (inst/sec) elapsed = 0:0:01:37 / Wed May  1 12:44:50 2019
GPGPU-Sim PTX: 40800000 instructions simulated : ctaid=(117,0,0) tid=(31,0,0)
GPGPU-Sim uArch: Shader 4 finished CTA #3 (119830,0), 7 CTAs running
GPGPU-Sim uArch: core:  4, cta: 3 initialized @(119831,0)
GPGPU-Sim PTX: 40900000 instructions simulated : ctaid=(100,0,0) tid=(95,0,0)
GPGPU-Sim PTX: 41000000 instructions simulated : ctaid=(158,0,0) tid=(31,0,0)
GPGPU-Sim PTX: 41100000 instructions simulated : ctaid=(85,0,0) tid=(31,0,0)
GPGPU-Sim PTX: 41200000 instructions simulated : ctaid=(55,0,0) tid=(63,0,0)
GPGPU-Sim uArch: cycles simulated: 121000  inst.: 41203392 (ipc=340.5) sim_rate=420442 (inst/sec) elapsed = 0:0:01:38 / Wed May  1 12:44:51 2019
GPGPU-Sim PTX: 41300000 instructions simulated : ctaid=(70,0,0) tid=(127,0,0)
GPGPU-Sim PTX: 41400000 instructions simulated : ctaid=(118,0,0) tid=(31,0,0)
GPGPU-Sim PTX: 41500000 instructions simulated : ctaid=(108,0,0) tid=(31,0,0)
GPGPU-Sim PTX: 41600000 instructions simulated : ctaid=(149,0,0) tid=(63,0,0)
GPGPU-Sim uArch: Shader 1 finished CTA #3 (121989,0), 7 CTAs running
GPGPU-Sim uArch: core:  1, cta: 3 initialized @(121990,0)
GPGPU-Sim uArch: cycles simulated: 122000  inst.: 41599200 (ipc=341.0) sim_rate=420193 (inst/sec) elapsed = 0:0:01:39 / Wed May  1 12:44:52 2019
GPGPU-Sim PTX: 41700000 instructions simulated : ctaid=(105,0,0) tid=(63,0,0)
[...]
dq_lat_table:0 	0 	0 	0 	0 	0 	0 	0 	0 	0 	0 	0 	0 	0 	0 	0 	0 	0 	0 	0 	0 	0 	0 	0 	0 	0 	0 	0 	0 	0 	0 	0 	
mf_lat_table:0 	0 	0 	0 	0 	0 	0 	4 	11088 	117915 	180768 	2740 	0 	0 	0 	0 	0 	0 	0 	0 	0 	0 	0 	0 	0 	0 	0 	0 	0 	0 	0 	0 	
icnt2mem_lat_table:0 	0 	0 	13787 	4943 	15602 	50510 	47535 	97097 	80782 	2379 	0 	0 	0 	0 	0 	0 	0 	0 	0 	0 	0 	0 	0 	
icnt2sh_lat_table:0 	0 	0 	166657 	20733 	125 	0 	0 	0 	0 	0 	0 	868 	1810 	3631 	7340 	14382 	29863 	59790 	7316 	0 	0 	0 	0 	
mf_lat_pw_table:0 	0 	0 	0 	0 	0 	0 	0 	37 	36 	1054 	0 	0 	0 	0 	0 	0 	0 	0 	0 	0 	0 	0 	0 	0 	0 	0 	0 	0 	0 	0 	0 	
maximum concurrent accesses to same row:
dram[0]:        26        26        22        14        32        20        32        40        20        18        26        30        32        30        24        20 
dram[1]:        22        26        14        14        24        20        32        38        18        10        24        28        32        30        26        16 
dram[2]:        26        26        16        14        20        24        34        44        20        16        32        24        32        30        12        18 
dram[3]:        26        26        14        14        20        24        32        32        10        18        26        24        32        30        20        22 
dram[4]:        27        26        28        22        24        24        34        32        24        18        30        36        30        30        24        22 
dram[5]:        26        26        18        16        30        24        32        32        18        18        26        28        30        30        14        16 
maximum service time to same row:
dram[0]:      4068      4217      5642      5480      4137      2761      2796      2881      8231      6051      2940      3032      3861      4189      7332      5931 
dram[1]:      2711      4197      5018      5506      4143      3434      2737      2814      7422      5669      2717      3159      3600      5228      7061      5800 
dram[2]:      2943      4486      6287     10117      2739      2715      2838      2976      5693      7209      3442      3238      3575      3384      5538      5729 
dram[3]:      3086      4085      8347      4721      2863      2750      2951      2771      5368      6830      2973      2846      3882      3424      5719      5194 
dram[4]:      3981      4183      4865      6137      2687      2704      3181      2827      6598      5694      2941      3498      3972      4255      5357      5497 
dram[5]:      3987      4113      6343      5053      2726      2722      2762      2743      6697      4793      2976      2894      5278      3944      5346      5413 
average row accesses per activate:
dram[0]:  1.539532  1.537313  1.524840  1.524840  1.556853  1.545176  1.573049  1.563375  1.534541  1.523810  1.559114  1.553820  1.545424  1.544381  1.542299  1.558583 
dram[1]:  1.528302  1.523874  1.491570  1.495030  1.517750  1.517750  1.544381  1.557522  1.503285  1.508737  1.523810  1.537118  1.508737  1.521277  1.519761  1.528901 
dram[2]:  1.555556  1.545176  1.534694  1.525355  1.546758  1.540238  1.586135  1.587236  1.525333  1.518248  1.569273  1.551186  1.553820  1.566051  1.540222  1.559646 
dram[3]:  1.520107  1.527469  1.499003  1.506008  1.516226  1.529848  1.556992  1.543339  1.493960  1.501805  1.525333  1.522795  1.522289  1.528390  1.523302  1.530435 
dram[4]:  1.547440  1.558459  1.530529  1.527420  1.552587  1.541808  1.559646  1.568735  1.531972  1.537118  1.549086  1.546991  1.570350  1.542299  1.545424  1.552239 
dram[5]:  1.522498  1.517241  1.506511  1.502998  1.510163  1.532432  1.542299  1.548038  1.510231  1.508240  1.534026  1.531459  1.534026  1.517241  1.520266  1.522795 
average row locality = 437509/285124 = 1.534452
number of total memory accesses made:
dram[0]:         0         0         0         0         0         0         0         0         0         0         0         0         0         0         0         0 
dram[1]:         0         0         0         0         0         0         0         0         0         0         0         0         0         0         0         0 
dram[2]:         0         0         0         0         0         0         0         0         0         0         0         0         0         0         0         0 
dram[3]:         0         0         0         0         0         0         0         0         0         0         0         0         0         0         0         0 
dram[4]:         0         0         0         0         0         0         0         0         0         0         0         0         0         0         0         0 
dram[5]:         0         0         0         0         0         0         0         0         0         0         0         0         0         0         0         0 
total accesses: 0
min_bank_accesses = 0!
min_chip_accesses = 0!
number of total read accesses:
dram[0]:      3251      3246      3232      3232      3242      3242      3264      3264      3264      3264      3264      3264      3264      3264      3264      3264 
dram[1]:      3250      3246      3232      3232      3242      3242      3264      3264      3264      3264      3264      3264      3264      3264      3264      3264 
dram[2]:      3250      3246      3232      3232      3242      3244      3264      3264      3264      3264      3264      3264      3264      3264      3264      3264 
dram[3]:      3250      3246      3232      3232      3242      3244      3264      3264      3264      3264      3264      3264      3264      3264      3264      3264 
dram[4]:      3248      3246      3232      3232      3242      3244      3264      3264      3264      3264      3264      3264      3264      3264      3264      3264 
dram[5]:      3248      3246      3232      3232      3242      3244      3264      3264      3264      3264      3264      3264      3264      3264      3264      3264 
total reads: 312509
bank skew: 3264/3232 = 1.01
chip skew: 52086/52084 = 1.00
number of total write accesses:
dram[0]:      1286      1286      1280      1280      1290      1290      1312      1312      1312      1312      1312      1312      1312      1312      1312      1312 
dram[1]:      1286      1286      1280      1280      1290      1290      1312      1312      1312      1312      1312      1312      1312      1312      1312      1312 
dram[2]:      1286      1286      1280      1280      1290      1292      1312      1312      1312      1312      1312      1312      1312      1312      1312      1312 
dram[3]:      1286      1286      1280      1280      1290      1292      1312      1312      1312      1312      1312      1312      1312      1312      1312      1312 
dram[4]:      1286      1286      1280      1280      1290      1292      1312      1312      1312      1312      1312      1312      1312      1312      1312      1312 
dram[5]:      1286      1286      1280      1280      1290      1292      1312      1312      1312      1312      1312      1312      1312      1312      1312      1312 
total reads: 125000
bank skew: 1312/1280 = 1.02
chip skew: 20834/20832 = 1.00
average mf latency per bank:
dram[0]:        774       810       784       822       797       835       810       842       790       817       792       820       796       829       821       870
dram[1]:        747       746       762       755       775       774       779       793       753       746       762       758       771       770       800       800
dram[2]:        776       765       782       775       784       781       804       807       780       763       782       773       790       785       804       821
dram[3]:        675       694       688       705       701       701       711       734       683       690       688       702       692       707       723       744
dram[4]:        981       950       986       976       989       971      1005       996       987       968       980       951       999       976      1030      1014
dram[5]:        699       708       716       720       729       740       723       751       715       718       712       723       719       730       761       779
maximum mf latency per bank:
dram[0]:       2681      2635      2623      2766      2676      2556      3393      2958      2867      2603      2457      2484      2647      2596      2634      2827
dram[1]:       2305      2233      2316      2407      2743      2246      2239      2492      2207      2534      2727      2243      2192      2700      2722      2215
dram[2]:       2939      2478      2624      2557      2501      2584      2675      2774      2733      2363      2898      2603      2774      2966      2506      2554
dram[3]:       2237      2249      2263      2190      2145      2153      2278      2487      2106      2318      2141      2502      2263      2204      2269      2252
dram[4]:       3290      3191      2683      2820      2585      2675      2883      2987      2986      2590      2564      2423      2609      2566      2852      2749
dram[5]:       2249      2632      2225      2241      2891      2205      2206      2366      2260      2308      2115      2230      2201      2340      2306      2680

Number of Memory Banks Accessed per Memory Operation per Warp (from 0):
0	0	0	0	0	0	0	0	0	0	0	0	0	0	0	0	0	0	0	0	0	0	0	0	0	0	0	0	0	0	0	0	0	0	0	0	0	0	0	0	0	0	0	0	0	0	0	0	0	0	0	0	0	0	0	0	0	0	0	0	0	0	0	0	0	0	0	0	0	0	0	0	0	0	0	0	0	0	0	0	0	0	0	0	0	0	0	0	0	0	0	0	0	0	0	0	
Average # of Memory Banks Accessed per Memory Operation per Warp=-nan

position of mrq chosen
0	0	0	0	0	0	0	0	0	0	0	0	0	0	0	0	

average position of mrq chosen = -nan
Memory Partition 0: 
Cache L2_bank_000:
MSHR contents

Cache L2_bank_001:
MSHR contents

In Dram Latency Queue (total = 0): 
DRAM[0]: 16 bks, busW=2 BL=8 CL=12, tRRD=2 tCCD=6, tRCD=12 tRAS=28 tRP=12 tRC=40
n_cmd=745426 n_nop=359404 n_act=47185 n_pre=47169 n_req=72917 n_rd=208340 n_write=83328 bw_util=0.7826
n_activity=732520 dram_eff=0.7963
bk0: 13004a 377748i bk1: 12984a 362153i bk2: 12928a 353844i bk3: 12928a 337457i bk4: 12968a 329392i bk5: 12968a 308825i bk6: 13056a 287541i bk7: 13056a 263919i bk8: 13056a 361111i bk9: 13056a 353173i bk10: 13056a 350860i bk11: 13056a 336655i bk12: 13056a 322412i bk13: 13056a 297372i bk14: 13056a 278254i bk15: 13056a 251284i 
dram_util_bins: 0 0 0 0 0 0 0 0 0 0
dram_eff_bins: 0 0 0 0 0 0 0 0 0 0
mrqq: max=16 avg=15.062
Memory Partition 1: 
Cache L2_bank_002:
MSHR contents

Cache L2_bank_003:
MSHR contents

In Dram Latency Queue (total = 0): 
DRAM[1]: 16 bks, busW=2 BL=8 CL=12, tRRD=2 tCCD=6, tRCD=12 tRAS=28 tRP=12 tRC=40
n_cmd=745426 n_nop=357858 n_act=47960 n_pre=47944 n_req=72916 n_rd=208336 n_write=83328 bw_util=0.7825
n_activity=735343 dram_eff=0.7933
bk0: 13000a 374930i bk1: 12984a 361126i bk2: 12928a 351849i bk3: 12928a 336829i bk4: 12968a 326737i bk5: 12968a 311026i bk6: 13056a 285913i bk7: 13056a 265243i bk8: 13056a 364225i bk9: 13056a 354493i bk10: 13056a 341779i bk11: 13056a 325850i bk12: 13056a 315903i bk13: 13056a 302515i bk14: 13056a 281380i bk15: 13056a 262907i 
dram_util_bins: 0 0 0 0 0 0 0 0 0 0
dram_eff_bins: 0 0 0 0 0 0 0 0 0 0
mrqq: max=16 avg=15.0699
Memory Partition 2: 
Cache L2_bank_004:
MSHR contents

Cache L2_bank_005:
MSHR contents

In Dram Latency Queue (total = 0): 
DRAM[2]: 16 bks, busW=2 BL=8 CL=12, tRRD=2 tCCD=6, tRCD=12 tRAS=28 tRP=12 tRC=40
n_cmd=745426 n_nop=359678 n_act=47042 n_pre=47026 n_req=72920 n_rd=208344 n_write=83336 bw_util=0.7826
n_activity=732753 dram_eff=0.7961
bk0: 13000a 377388i bk1: 12984a 359587i bk2: 12928a 343713i bk3: 12928a 337807i bk4: 12968a 328506i bk5: 12976a 311512i bk6: 13056a 288291i bk7: 13056a 267449i bk8: 13056a 358799i bk9: 13056a 351249i bk10: 13056a 345568i bk11: 13056a 330284i bk12: 13056a 318619i bk13: 13056a 300954i bk14: 13056a 286415i bk15: 13056a 255479i 
dram_util_bins: 0 0 0 0 0 0 0 0 0 0
dram_eff_bins: 0 0 0 0 0 0 0 0 0 0
mrqq: max=16 avg=15.2426
Memory Partition 3: 
Cache L2_bank_006:
MSHR contents

Cache L2_bank_007:
MSHR contents

In Dram Latency Queue (total = 0): 
DRAM[3]: 16 bks, busW=2 BL=8 CL=12, tRRD=2 tCCD=6, tRCD=12 tRAS=28 tRP=12 tRC=40
n_cmd=745426 n_nop=357914 n_act=47924 n_pre=47908 n_req=72920 n_rd=208344 n_write=83336 bw_util=0.7826
n_activity=734147 dram_eff=0.7946
bk0: 13000a 373247i bk1: 12984a 354410i bk2: 12928a 348787i bk3: 12928a 333933i bk4: 12968a 326309i bk5: 12976a 311161i bk6: 13056a 290699i bk7: 13056a 265812i bk8: 13056a 363445i bk9: 13056a 354230i bk10: 13056a 348120i bk11: 13056a 331413i bk12: 13056a 319659i bk13: 13056a 302998i bk14: 13056a 283754i bk15: 13056a 249071i 
dram_util_bins: 0 0 0 0 0 0 0 0 0 0
dram_eff_bins: 0 0 0 0 0 0 0 0 0 0
mrqq: max=16 avg=14.8887
Memory Partition 4: 
Cache L2_bank_008:
MSHR contents

Cache L2_bank_009:
MSHR contents

In Dram Latency Queue (total = 0): 
DRAM[4]: 16 bks, busW=2 BL=8 CL=12, tRRD=2 tCCD=6, tRCD=12 tRAS=28 tRP=12 tRC=40
n_cmd=745426 n_nop=359534 n_act=47118 n_pre=47102 n_req=72918 n_rd=208336 n_write=83336 bw_util=0.7826
n_activity=733241 dram_eff=0.7956
bk0: 12992a 373998i bk1: 12984a 364472i bk2: 12928a 358006i bk3: 12928a 335408i bk4: 12968a 332751i bk5: 12976a 312820i bk6: 13056a 293122i bk7: 13056a 262468i bk8: 13056a 368263i bk9: 13056a 358305i bk10: 13056a 355148i bk11: 13056a 337734i bk12: 13056a 325057i bk13: 13056a 306417i bk14: 13056a 287691i bk15: 13056a 254336i 
dram_util_bins: 0 0 0 0 0 0 0 0 0 0
dram_eff_bins: 0 0 0 0 0 0 0 0 0 0
mrqq: max=16 avg=15.4163
Memory Partition 5: 
Cache L2_bank_010:
MSHR contents
MSHR: tag=0x80f20d80, atomic=0 1 entries : 0x7fedc4e0e9e0 :  mf: uid=11075493, sid05:w31, part=5, addr=0x80f20d80, load , size=128, unknown  status = IN_PARTITION_DRAM (564716), 

Cache L2_bank_011:
MSHR contents

In Dram Latency Queue (total = 0): 
DRAM[5]: 16 bks, busW=2 BL=8 CL=12, tRRD=2 tCCD=6, tRCD=12 tRAS=28 tRP=12 tRC=40
n_cmd=745426 n_nop=357981 n_act=47895 n_pre=47879 n_req=72918 n_rd=208335 n_write=83336 bw_util=0.7826
n_activity=735336 dram_eff=0.7933
bk0: 12992a 373113i bk1: 12984a 361790i bk2: 12928a 342839i bk3: 12928a 339379i bk4: 12968a 319940i bk5: 12976a 307600i bk6: 13056a 290810i bk7: 13056a 263969i bk8: 13056a 370158i bk9: 13056a 356000i bk10: 13055a 343705i bk11: 13056a 334693i bk12: 13056a 318564i bk13: 13056a 301239i bk14: 13056a 279503i bk15: 13056a 255790i 
dram_util_bins: 0 0 0 0 0 0 0 0 0 0
dram_eff_bins: 0 0 0 0 0 0 0 0 0 0
mrqq: max=16 avg=14.8514

========= L2 cache stats =========
L2_cache_bank[0]: Access = 26087, Miss = 26045, Miss_rate = 0.998, Pending_hits = 9, Reservation_fails = 28055
L2_cache_bank[1]: Access = 26040, Miss = 26040, Miss_rate = 1.000, Pending_hits = 0, Reservation_fails = 43560
L2_cache_bank[2]: Access = 26072, Miss = 26044, Miss_rate = 0.999, Pending_hits = 6, Reservation_fails = 15186
L2_cache_bank[3]: Access = 26040, Miss = 26040, Miss_rate = 1.000, Pending_hits = 0, Reservation_fails = 22994
L2_cache_bank[4]: Access = 26072, Miss = 26044, Miss_rate = 0.999, Pending_hits = 6, Reservation_fails = 33169
L2_cache_bank[5]: Access = 26042, Miss = 26042, Miss_rate = 1.000, Pending_hits = 0, Reservation_fails = 34222
L2_cache_bank[6]: Access = 26072, Miss = 26044, Miss_rate = 0.999, Pending_hits = 6, Reservation_fails = 14915
L2_cache_bank[7]: Access = 26042, Miss = 26042, Miss_rate = 1.000, Pending_hits = 0, Reservation_fails = 16784
L2_cache_bank[8]: Access = 26042, Miss = 26042, Miss_rate = 1.000, Pending_hits = 0, Reservation_fails = 26509
L2_cache_bank[9]: Access = 26042, Miss = 26042, Miss_rate = 1.000, Pending_hits = 0, Reservation_fails = 40604
L2_cache_bank[10]: Access = 26042, Miss = 26042, Miss_rate = 1.000, Pending_hits = 0, Reservation_fails = 12521
L2_cache_bank[11]: Access = 26042, Miss = 26042, Miss_rate = 1.000, Pending_hits = 0, Reservation_fails = 15515
L2_total_cache_accesses = 312635
L2_total_cache_misses = 312509
L2_total_cache_miss_rate = 0.9996
L2_total_cache_pending_hits = 27
L2_total_cache_reservation_fails = 304034
L2_total_cache_breakdown:
	L2_cache_stats_breakdown[GLOBAL_ACC_R][MISS] = 187500
	L2_cache_stats_breakdown[GLOBAL_ACC_R][RESERVATION_FAIL] = 182250
	L2_cache_stats_breakdown[CONST_ACC_R][HIT] = 11
	L2_cache_stats_breakdown[CONST_ACC_R][HIT_RESERVED] = 3
	L2_cache_stats_breakdown[CONST_ACC_R][MISS] = 1
	L2_cache_stats_breakdown[CONST_ACC_R][RESERVATION_FAIL] = 114
	L2_cache_stats_breakdown[GLOBAL_ACC_W][MISS] = 125000
	L2_cache_stats_breakdown[GLOBAL_ACC_W][RESERVATION_FAIL] = 120520
	L2_cache_stats_breakdown[INST_ACC_R][HIT] = 88
	L2_cache_stats_breakdown[INST_ACC_R][HIT_RESERVED] = 24
	L2_cache_stats_breakdown[INST_ACC_R][MISS] = 8
	L2_cache_stats_breakdown[INST_ACC_R][RESERVATION_FAIL] = 1150
L2_cache_data_port_util = 0.000
L2_cache_fill_port_util = 0.184

icnt_total_pkts_mem_to_simt=1063145
icnt_total_pkts_simt_to_mem=812635
LD_mem_lat_dist  0 0 0 0 0 0 0 0 0 0 0 0 0 0 0 0 0 0 0 0 0 0 0 0 0 0 0
ST_mem_lat_dist  0 0 0 0 0 0 0 0 0 0 0 0 0 0 0 0 0 0 0 0 0 0 0 0 0 0 0
----------------------------Interconnect-DETAILS--------------------------------
Class 0:
Packet latency average = 86.2834
	minimum = 6
	maximum = 1398
Network latency average = 56.0823
	minimum = 6
	maximum = 1197
Slowest packet = 3886
Flit latency average = 40.5362
	minimum = 6
	maximum = 1100
Slowest flit = 12423
Fragmentation average = 1.13421
	minimum = 0
	maximum = 801
Injected packet rate average = 0.0410084
	minimum = 0.0357507 (at node 6)
	maximum = 0.0461948 (at node 15)
Accepted packet rate average = 0.0410084
	minimum = 0.0357507 (at node 6)
	maximum = 0.0461948 (at node 15)
Injected flit rate average = 0.123023
	minimum = 0.0929262 (at node 6)
	maximum = 0.157142 (at node 15)
Accepted flit rate average= 0.123023
	minimum = 0.11989 (at node 16)
	maximum = 0.129401 (at node 1)
Injected packet length average = 2.99995
Accepted packet length average = 2.99995
Total in-flight flits = 0 (0 measured)
====== Overall Traffic Statistics ======
====== Traffic class 0 ======
Packet latency average = 86.2834 (1 samples)
	minimum = 6 (1 samples)
	maximum = 1398 (1 samples)
Network latency average = 56.0823 (1 samples)
	minimum = 6 (1 samples)
	maximum = 1197 (1 samples)
Flit latency average = 40.5362 (1 samples)
	minimum = 6 (1 samples)
	maximum = 1100 (1 samples)
Fragmentation average = 1.13421 (1 samples)
	minimum = 0 (1 samples)
	maximum = 801 (1 samples)
Injected packet rate average = 0.0410084 (1 samples)
	minimum = 0.0357507 (1 samples)
	maximum = 0.0461948 (1 samples)
Accepted packet rate average = 0.0410084 (1 samples)
	minimum = 0.0357507 (1 samples)
	maximum = 0.0461948 (1 samples)
Injected flit rate average = 0.123023 (1 samples)
	minimum = 0.0929262 (1 samples)
	maximum = 0.157142 (1 samples)
Accepted flit rate average = 0.123023 (1 samples)
	minimum = 0.11989 (1 samples)
	maximum = 0.129401 (1 samples)
Injected packet size average = 2.99995 (1 samples)
Accepted packet size average = 2.99995 (1 samples)
Hops average = 1 (1 samples)
----------------------------END-of-Interconnect-DETAILS-------------------------


gpgpu_simulation_time = 0 days, 0 hrs, 7 min, 53 sec (473 sec)
gpgpu_simulation_rate = 413914 (inst/sec)
gpgpu_simulation_rate = 1193 (cycle/sec)
GPGPU-Sim: synchronize waiting for inactive GPU simulation
GPGPU-Sim API: Stream Manager State
GPGPU-Sim: detected inactive GPU simulation thread
Options count             : 4000000     
BlackScholesGPU() time    : 472202.875000 msec
Effective memory bandwidth: 0.000085 GB/s
Gigaoptions per second    : 0.000008     
Reading back GPU results...
Checking the results...
...running CPU calculations.
Comparing the results...
L1 norm: 1.729535E-07
Max absolute error: 1.192093E-05
TEST PASSED
Shutting down...
...releasing GPU memory.
...releasing CPU memory.
Shutdown done.
GPGPU-Sim: exit_simulation called
GPGPU-Sim: simulation thread signaled exit

Press ENTER to exit...
