

        *** GPGPU-Sim Simulator Version 3.2.2  [build 0] ***


GPGPU-Sim PTX: simulation mode 0 (can change with PTX_SIM_MODE_FUNC environment variable:
               1=functional simulation only, 0=detailed performance simulator)
GPGPU-Sim: Configuration options:

-network_mode                           1 # Interconnection network mode
-inter_config_file   config_fermi_islip.icnt # Interconnection network config file
-gpgpu_ptx_use_cuobjdump                    1 # Use cuobjdump to extract ptx and sass from binaries
-gpgpu_experimental_lib_support                    0 # Try to extract code from cuda libraries [Broken because of unknown cudaGetExportTable]
-gpgpu_ptx_convert_to_ptxplus                    0 # Convert SASS (native ISA) to ptxplus and run ptxplus
-gpgpu_ptx_force_max_capability                   20 # Force maximum compute capability
-gpgpu_ptx_inst_debug_to_file                    0 # Dump executed instructions' debug information to file
-gpgpu_ptx_inst_debug_file       inst_debug.txt # Executed instructions' debug output file
-gpgpu_ptx_inst_debug_thread_uid                    1 # Thread UID for executed instructions' debug output
-gpgpu_simd_model                       1 # 1 = post-dominator
-gpgpu_shader_core_pipeline              1536:32 # shader core pipeline config, i.e., {<nthread>:<warpsize>}
-gpgpu_tex_cache:l1  4:128:24,L:R:m:N:L,F:128:4,128:2 # per-shader L1 texture cache  (READ-ONLY) config  {<nsets>:<bsize>:<assoc>,<rep>:<wr>:<alloc>:<wr_alloc>,<mshr>:<N>:<merge>,<mq>:<rf>}
-gpgpu_const_cache:l1 64:64:2,L:R:f:N:L,A:2:32,4 # per-shader L1 constant memory cache  (READ-ONLY) config  {<nsets>:<bsize>:<assoc>,<rep>:<wr>:<alloc>:<wr_alloc>,<mshr>:<N>:<merge>,<mq>} 
-gpgpu_cache:il1     4:128:4,L:R:f:N:L,A:2:32,4 # shader L1 instruction cache config  {<nsets>:<bsize>:<assoc>,<rep>:<wr>:<alloc>:<wr_alloc>,<mshr>:<N>:<merge>,<mq>} 
-gpgpu_cache:dl1     64:128:1,L:L:m:N:H,A:32:8,8 # per-shader L1 data cache config  {<nsets>:<bsize>:<assoc>,<rep>:<wr>:<alloc>:<wr_alloc>,<mshr>:<N>:<merge>,<mq> | none}
-gpgpu_cache:dl1PrefL1                 none # per-shader L1 data cache config  {<nsets>:<bsize>:<assoc>,<rep>:<wr>:<alloc>:<wr_alloc>,<mshr>:<N>:<merge>,<mq> | none}
-gpgpu_cache:dl1PreShared                 none # per-shader L1 data cache config  {<nsets>:<bsize>:<assoc>,<rep>:<wr>:<alloc>:<wr_alloc>,<mshr>:<N>:<merge>,<mq> | none}
-gmem_skip_L1D                          0 # global memory access skip L1D cache (implements -Xptxas -dlcm=cg, default=no skip)
-gpgpu_perfect_mem                      0 # enable perfect memory mode (no cache miss)
-n_regfile_gating_group                    4 # group of lanes that should be read/written together)
-gpgpu_clock_gated_reg_file                    0 # enable clock gated reg file for power calculations
-gpgpu_clock_gated_lanes                    0 # enable clock gated lanes for power calculations
-gpgpu_shader_registers                32768 # Number of registers per shader core. Limits number of concurrent CTAs. (default 8192)
-gpgpu_shader_cta                       8 # Maximum number of concurrent CTAs in shader (default 8)
-gpgpu_num_cta_barriers                   16 # Maximum number of named barriers per CTA (default 16)
-gpgpu_n_clusters                      15 # number of processing clusters
-gpgpu_n_cores_per_cluster                    1 # number of simd cores per cluster
-gpgpu_n_cluster_ejection_buffer_size                    8 # number of packets in ejection buffer
-gpgpu_n_ldst_response_buffer_size                    2 # number of response packets in ld/st unit ejection buffer
-gpgpu_shmem_size                   16384 # Size of shared memory per shader core (default 16kB)
-gpgpu_shmem_size                   49152 # Size of shared memory per shader core (default 16kB)
-gpgpu_shmem_size_PrefL1                16384 # Size of shared memory per shader core (default 16kB)
-gpgpu_shmem_size_PrefShared                16384 # Size of shared memory per shader core (default 16kB)
-gpgpu_shmem_num_banks                   32 # Number of banks in the shared memory in each shader core (default 16)
-gpgpu_shmem_limited_broadcast                    0 # Limit shared memory to do one broadcast per cycle (default on)
-gpgpu_shmem_warp_parts                    1 # Number of portions a warp is divided into for shared memory bank conflict check 
-gpgpu_warpdistro_shader                   -1 # Specify which shader core to collect the warp size distribution from
-gpgpu_warp_issue_shader                    0 # Specify which shader core to collect the warp issue distribution from
-gpgpu_local_mem_map                    1 # Mapping from local memory space address to simulated GPU physical address space (default = enabled)
-gpgpu_num_reg_banks                   16 # Number of register banks (default = 8)
-gpgpu_reg_bank_use_warp_id                    0 # Use warp ID in mapping registers to banks (default = off)
-gpgpu_operand_collector_num_units_sp                    6 # number of collector units (default = 4)
-gpgpu_operand_collector_num_units_sfu                    8 # number of collector units (default = 4)
-gpgpu_operand_collector_num_units_mem                    2 # number of collector units (default = 2)
-gpgpu_operand_collector_num_units_gen                    0 # number of collector units (default = 0)
-gpgpu_operand_collector_num_in_ports_sp                    2 # number of collector unit in ports (default = 1)
-gpgpu_operand_collector_num_in_ports_sfu                    1 # number of collector unit in ports (default = 1)
-gpgpu_operand_collector_num_in_ports_mem                    1 # number of collector unit in ports (default = 1)
-gpgpu_operand_collector_num_in_ports_gen                    0 # number of collector unit in ports (default = 0)
-gpgpu_operand_collector_num_out_ports_sp                    2 # number of collector unit in ports (default = 1)
-gpgpu_operand_collector_num_out_ports_sfu                    1 # number of collector unit in ports (default = 1)
-gpgpu_operand_collector_num_out_ports_mem                    1 # number of collector unit in ports (default = 1)
-gpgpu_operand_collector_num_out_ports_gen                    0 # number of collector unit in ports (default = 0)
-gpgpu_coalesce_arch                   13 # Coalescing arch (default = 13, anything else is off for now)
-gpgpu_num_sched_per_core                    2 # Number of warp schedulers per core
-gpgpu_max_insn_issue_per_warp                    1 # Max number of instructions that can be issued per warp in one cycle by scheduler
-gpgpu_simt_core_sim_order                    1 # Select the simulation order of cores in a cluster (0=Fix, 1=Round-Robin)
-gpgpu_pipeline_widths        2,1,1,2,1,1,2 # Pipeline widths ID_OC_SP,ID_OC_SFU,ID_OC_MEM,OC_EX_SP,OC_EX_SFU,OC_EX_MEM,EX_WB
-gpgpu_num_sp_units                     2 # Number of SP units (default=1)
-gpgpu_num_sfu_units                    1 # Number of SF units (default=1)
-gpgpu_num_mem_units                    1 # Number if ldst units (default=1) WARNING: not hooked up to anything
-gpgpu_scheduler                      gto # Scheduler configuration: < lrr | gto | two_level_active > If two_level_active:<num_active_warps>:<inner_prioritization>:<outer_prioritization>For complete list of prioritization values see shader.h enum scheduler_prioritization_typeDefault: gto
-gpgpu_dram_scheduler                    1 # 0 = fifo, 1 = FR-FCFS (defaul)
-gpgpu_dram_partition_queues              8:8:8:8 # i2$:$2d:d2$:$2i
-l2_ideal                               0 # Use a ideal L2 cache that always hit
-gpgpu_cache:dl2     64:128:8,L:B:m:W:L,A:32:4,4:0,32 # unified banked L2 data cache config  {<nsets>:<bsize>:<assoc>,<rep>:<wr>:<alloc>:<wr_alloc>,<mshr>:<N>:<merge>,<mq>}
-gpgpu_cache:dl2_texture_only                    0 # L2 cache used for texture only
-gpgpu_n_mem                            6 # number of memory modules (e.g. memory controllers) in gpu
-gpgpu_n_sub_partition_per_mchannel                    2 # number of memory subpartition in each memory module
-gpgpu_n_mem_per_ctrlr                    2 # number of memory chips per memory controller
-gpgpu_memlatency_stat                   14 # track and display latency statistics 0x2 enables MC, 0x4 enables queue logs
-gpgpu_frfcfs_dram_sched_queue_size                   16 # 0 = unlimited (default); # entries per chip
-gpgpu_dram_return_queue_size                  116 # 0 = unlimited (default); # entries per chip
-gpgpu_dram_buswidth                    4 # default = 4 bytes (8 bytes per cycle at DDR)
-gpgpu_dram_burst_length                    8 # Burst length of each DRAM request (default = 4 data bus cycle)
-dram_data_command_freq_ratio                    4 # Frequency ratio between DRAM data bus and command bus (default = 2 times, i.e. DDR)
-gpgpu_dram_timing_opt nbk=16:CCD=2:RRD=6:RCD=12:RAS=28:RP=12:RC=40: CL=12:WL=4:CDLR=5:WR=12:nbkgrp=4:CCDL=3:RTPL=2 # DRAM timing parameters = {nbk:tCCD:tRRD:tRCD:tRAS:tRP:tRC:CL:WL:tCDLR:tWR:nbkgrp:tCCDL:tRTPL}
-rop_latency                          120 # ROP queue latency (default 85)
-dram_latency                         100 # DRAM latency (default 30)
-gpgpu_mem_addr_mapping dramid@8;00000000.00000000.00000000.00000000.0000RRRR.RRRRRRRR.BBBCCCCB.CCSSSSSS # mapping memory address to dram model {dramid@<start bit>;<memory address map>}
-gpgpu_mem_addr_test                    0 # run sweep test to check address mapping for aliased address
-gpgpu_mem_address_mask                    1 # 0 = old addressing mask, 1 = new addressing mask, 2 = new add. mask + flipped bank sel and chip sel bits
-gpuwattch_xml_file  gpuwattch_gtx480.xml # GPUWattch XML file
-power_simulation_enabled                    1 # Turn on power simulator (1=On, 0=Off)
-power_per_cycle_dump                    0 # Dump detailed power output each cycle
-power_trace_enabled                    0 # produce a file for the power trace (1=On, 0=Off)
-power_trace_zlevel                     6 # Compression level of the power trace output log (0=no comp, 9=highest)
-steady_power_levels_enabled                    0 # produce a file for the steady power levels (1=On, 0=Off)
-steady_state_definition                  8:4 # allowed deviation:number of samples
-gpgpu_max_cycle                        0 # terminates gpu simulation early (0 = no limit)
-gpgpu_max_insn                         0 # terminates gpu simulation early (0 = no limit)
-gpgpu_max_cta                          0 # terminates gpu simulation early (0 = no limit)
-gpgpu_runtime_stat                   500 # display runtime statistics such as dram utilization {<freq>:<flag>}
-liveness_message_freq                    1 # Minimum number of seconds between simulation liveness messages (0 = always print)
-gpgpu_flush_l1_cache                    0 # Flush L1 cache at the end of each kernel call
-gpgpu_flush_l2_cache                    0 # Flush L2 cache at the end of each kernel call
-gpgpu_deadlock_detect                    1 # Stop the simulation at deadlock (1=on (default), 0=off)
-gpgpu_ptx_instruction_classification                    0 # if enabled will classify ptx instruction types per kernel (Max 255 kernels now)
-gpgpu_ptx_sim_mode                     0 # Select between Performance (default) or Functional simulation (1)
-gpgpu_clock_domains 700.0:700.0:700.0:924.0 # Clock Domain Frequencies in MhZ {<Core Clock>:<ICNT Clock>:<L2 Clock>:<DRAM Clock>}
-gpgpu_max_concurrent_kernel                    8 # maximum kernels that can run concurrently on GPU
-gpgpu_cflog_interval                    0 # Interval between each snapshot in control flow logger
-visualizer_enabled                     0 # Turn on visualizer output (1=On, 0=Off)
-visualizer_outputfile                 NULL # Specifies the output log file for visualizer
-visualizer_zlevel                      6 # Compression level of the visualizer output log (0=no comp, 9=highest)
-trace_enabled                          0 # Turn on traces
-trace_components                    none # comma seperated list of traces to enable. Complete list found in trace_streams.tup. Default none
-trace_sampling_core                    0 # The core which is printed using CORE_DPRINTF. Default 0
-trace_sampling_memory_partition                   -1 # The memory partition which is printed using MEMPART_DPRINTF. Default -1 (i.e. all)
-enable_ptx_file_line_stats                    1 # Turn on PTX source line statistic profiling. (1 = On)
-ptx_line_stats_filename gpgpu_inst_stats.txt # Output file for PTX source line statistics.
-save_embedded_ptx                      0 # saves ptx files embedded in binary as <n>.ptx
-keep                                   0 # keep intermediate files created by GPGPU-Sim when interfacing with external programs
-gpgpu_ptx_save_converted_ptxplus                    0 # Saved converted ptxplus to a file
-ptx_opcode_latency_int         4,13,4,5,145 # Opcode latencies for integers <ADD,MAX,MUL,MAD,DIV>Default 1,1,19,25,145
-ptx_opcode_latency_fp          4,13,4,5,39 # Opcode latencies for single precision floating points <ADD,MAX,MUL,MAD,DIV>Default 1,1,1,1,30
-ptx_opcode_latency_dp         8,19,8,8,330 # Opcode latencies for double precision floating points <ADD,MAX,MUL,MAD,DIV>Default 8,8,8,8,335
-ptx_opcode_initiation_int            1,2,2,1,8 # Opcode initiation intervals for integers <ADD,MAX,MUL,MAD,DIV>Default 1,1,4,4,32
-ptx_opcode_initiation_fp            1,2,1,1,4 # Opcode initiation intervals for single precision floating points <ADD,MAX,MUL,MAD,DIV>Default 1,1,1,1,5
-ptx_opcode_initiation_dp         8,16,8,8,130 # Opcode initiation intervals for double precision floating points <ADD,MAX,MUL,MAD,DIV>Default 8,8,8,8,130
DRAM Timing Options:
nbk                                    16 # number of banks
CCD                                     2 # column to column delay
RRD                                     6 # minimal delay between activation of rows in different banks
RCD                                    12 # row to column delay
RAS                                    28 # time needed to activate row
RP                                     12 # time needed to precharge (deactivate) row
RC                                     40 # row cycle time
CDLR                                    5 # switching from write to read (changes tWTR)
WR                                     12 # last data-in to row precharge
CL                                     12 # CAS latency
WL                                      4 # Write latency
nbkgrp                                  4 # number of bank groups
CCDL                                    3 # column to column delay between accesses to different bank groups
RTPL                                    2 # read to precharge delay between accesses to different bank groups
Total number of memory sub partition = 12
addr_dec_mask[CHIP]  = 0000000000000000 	high:64 low:0
addr_dec_mask[BK]    = 000000000000e100 	high:16 low:8
addr_dec_mask[ROW]   = 000000000fff0000 	high:28 low:16
addr_dec_mask[COL]   = 0000000000001eff 	high:13 low:0
addr_dec_mask[BURST] = 000000000000003f 	high:6 low:0
sub_partition_id_mask = 0000000000000100
GPGPU-Sim uArch: clock freqs: 700000000.000000:700000000.000000:700000000.000000:924000000.000000
GPGPU-Sim uArch: clock periods: 0.00000000142857142857:0.00000000142857142857:0.00000000142857142857:0.00000000108225108225
*** Initializing Memory Statistics ***
GPGPU-Sim uArch: interconnect node map (shaderID+MemID to icntID)
GPGPU-Sim uArch: Memory nodes ID start from index: 15
GPGPU-Sim uArch:    0   1   2   3   4
GPGPU-Sim uArch:    5   6   7   8   9
GPGPU-Sim uArch:   10  11  12  13  14
GPGPU-Sim uArch:   15  16  17  18  19
GPGPU-Sim uArch:   20  21  22  23  24
GPGPU-Sim uArch:   25  26
GPGPU-Sim uArch: interconnect node reverse map (icntID to shaderID+MemID)
GPGPU-Sim uArch: Memory nodes start from ID: 15
GPGPU-Sim uArch:    0   1   2   3   4
GPGPU-Sim uArch:    5   6   7   8   9
GPGPU-Sim uArch:   10  11  12  13  14
GPGPU-Sim uArch:   15  16  17  18  19
GPGPU-Sim uArch:   20  21  22  23  24
GPGPU-Sim uArch:   25  26
575cc336cf9f8f0a73559869c93333de  /home/scratch/adwait/applications/benchmarks/CUDA/BFS2/gpgpu_ptx_sim__BFS2
GPGPU-Sim uArch: performance model initialization complete.
GPGPU-Sim PTX: __cudaRegisterFatBinary, fat_cubin_handle = 1, filename=bfs.cu
self exe links to: /home/scratch/adwait/applications/benchmarks/CUDA/BFS2/gpgpu_ptx_sim__BFS2
Running md5sum using "md5sum /home/scratch/adwait/applications/benchmarks/CUDA/BFS2/gpgpu_ptx_sim__BFS2 "
Running cuobjdump using "$CUDA_INSTALL_PATH/bin/cuobjdump -ptx -elf -sass /home/scratch/adwait/applications/benchmarks/CUDA/BFS2/gpgpu_ptx_sim__BFS2 > _cuobjdump_complete_output_xhedui"
Parsing file _cuobjdump_complete_output_xhedui
######### cuobjdump parser ########
## Adding new section ELF
Adding arch: sm_20
Adding identifier: bfs.cu
## Adding new section PTX
Adding ptx filename: _cuobjdump_1.ptx
Adding arch: sm_20
Adding identifier: bfs.cu
Done parsing!!!
GPGPU-Sim PTX: __cudaRegisterFunction _Z7Kernel2PbS_S_S_i : hostFun 0x0x4017d8, fat_cubin_handle = 1
GPGPU-Sim PTX: instruction assembly for function '_Z6KernelP4NodePiPbS2_S2_S1_i'...   done.
GPGPU-Sim PTX: finding reconvergence points for '_Z6KernelP4NodePiPbS2_S2_S1_i'...
GPGPU-Sim PTX: Finding dominators for '_Z6KernelP4NodePiPbS2_S2_S1_i'...
GPGPU-Sim PTX: Finding immediate dominators for '_Z6KernelP4NodePiPbS2_S2_S1_i'...
GPGPU-Sim PTX: Finding postdominators for '_Z6KernelP4NodePiPbS2_S2_S1_i'...
GPGPU-Sim PTX: Finding immediate postdominators for '_Z6KernelP4NodePiPbS2_S2_S1_i'...
GPGPU-Sim PTX: pre-decoding instructions for '_Z6KernelP4NodePiPbS2_S2_S1_i'...
GPGPU-Sim PTX: reconvergence points for _Z6KernelP4NodePiPbS2_S2_S1_i...
GPGPU-Sim PTX:  1 (potential) branch divergence @  PC=0x030 (_1.ptx:73) @%p1 bra $Lt_0_5122;
GPGPU-Sim PTX:    immediate post dominator      @  PC=0x1c0 (_1.ptx:135) exit;
GPGPU-Sim PTX:  2 (potential) branch divergence @  PC=0x068 (_1.ptx:80) @%p2 bra $Lt_0_5122;
GPGPU-Sim PTX:    immediate post dominator      @  PC=0x1c0 (_1.ptx:135) exit;
GPGPU-Sim PTX:  3 (potential) branch divergence @  PC=0x0c0 (_1.ptx:93) @%p3 bra $Lt_0_5122;
GPGPU-Sim PTX:    immediate post dominator      @  PC=0x1c0 (_1.ptx:135) exit;
GPGPU-Sim PTX:  4 (potential) branch divergence @  PC=0x120 (_1.ptx:108) @%p4 bra $Lt_0_4354;
GPGPU-Sim PTX:    immediate post dominator      @  PC=0x1a0 (_1.ptx:128) add.s32 %r10, %r10, 1;
GPGPU-Sim PTX:  5 (potential) branch divergence @  PC=0x1b8 (_1.ptx:131) @%p5 bra $Lt_0_4098;
GPGPU-Sim PTX:    immediate post dominator      @  PC=0x1c0 (_1.ptx:135) exit;
GPGPU-Sim PTX: ... end of reconvergence points for _Z6KernelP4NodePiPbS2_S2_S1_i
GPGPU-Sim PTX: ... done pre-decoding instructions for '_Z6KernelP4NodePiPbS2_S2_S1_i'.
GPGPU-Sim PTX: instruction assembly for function '_Z7Kernel2PbS_S_S_i'...   done.
GPGPU-Sim PTX: finding reconvergence points for '_Z7Kernel2PbS_S_S_i'...
GPGPU-Sim PTX: Finding dominators for '_Z7Kernel2PbS_S_S_i'...
GPGPU-Sim PTX: Finding immediate dominators for '_Z7Kernel2PbS_S_S_i'...
GPGPU-Sim PTX: Finding postdominators for '_Z7Kernel2PbS_S_S_i'...
GPGPU-Sim PTX: Finding immediate postdominators for '_Z7Kernel2PbS_S_S_i'...
GPGPU-Sim PTX: pre-decoding instructions for '_Z7Kernel2PbS_S_S_i'...
GPGPU-Sim PTX: reconvergence points for _Z7Kernel2PbS_S_S_i...
GPGPU-Sim PTX:  1 (potential) branch divergence @  PC=0x1f8 (_1.ptx:157) @%p1 bra $Lt_1_1794;
GPGPU-Sim PTX:    immediate post dominator      @  PC=0x2a0 (_1.ptx:185) exit;
GPGPU-Sim PTX:  2 (potential) branch divergence @  PC=0x230 (_1.ptx:164) @%p2 bra $Lt_1_1794;
GPGPU-Sim PTX:    immediate post dominator      @  PC=0x2a0 (_1.ptx:185) exit;
GPGPU-Sim PTX: ... end of reconvergence points for _Z7Kernel2PbS_S_S_i
GPGPU-Sim PTX: ... done pre-decoding instructions for '_Z7Kernel2PbS_S_S_i'.
GPGPU-Sim PTX: finished parsing EMBEDDED .ptx file _1.ptx
Adding _cuobjdump_1.ptx with cubin handle 1
GPGPU-Sim PTX: extracting embedded .ptx to temporary file "_ptx_dkGbFv"
Running: cat _ptx_dkGbFv | sed 's/.version 1.5/.version 1.4/' | sed 's/, texmode_independent//' | sed 's/\(\.extern \.const\[1\] .b8 \w\+\)\[\]/\1\[1\]/' | sed 's/const\[.\]/const\[0\]/g' > _ptx2_cP0uQI
GPGPU-Sim PTX: generating ptxinfo using "$CUDA_INSTALL_PATH/bin/ptxas --gpu-name=sm_20 -v _ptx2_cP0uQI --output-file  /dev/null 2> _ptx_dkGbFvinfo"
GPGPU-Sim PTX: Kernel '_Z7Kernel2PbS_S_S_i' : regs=12, lmem=0, smem=0, cmem=68
GPGPU-Sim PTX: Kernel '_Z6KernelP4NodePiPbS2_S2_S1_i' : regs=15, lmem=0, smem=0, cmem=84
GPGPU-Sim PTX: removing ptxinfo using "rm -f _ptx_dkGbFv _ptx2_cP0uQI _ptx_dkGbFvinfo"
GPGPU-Sim PTX: loading globals with explicit initializers... 
GPGPU-Sim PTX: finished loading globals (0 bytes total).
GPGPU-Sim PTX: loading constants with explicit initializers...  done.
GPGPU-Sim PTX: __cudaRegisterFunction _Z6KernelP4NodePiPbS2_S2_S1_i : hostFun 0x0x40169c, fat_cubin_handle = 1
Input file: ./data/graph32k500kedges_SV.txt
Reading File
Read File
Copied Everything to GPU memory

GPGPU-Sim PTX: cudaLaunch for 0x0x40169c (mode=performance simulation) on stream 0
GPGPU-Sim PTX: pushing kernel '_Z6KernelP4NodePiPbS2_S2_S1_i' to stream 0, gridDim= (63,1,1) blockDim = (512,1,1) 
kernel '_Z6KernelP4NodePiPbS2_S2_S1_i' transfer to GPU hardware scheduler
GPGPU-Sim uArch: Shader 1 bind to kernel 1 '_Z6KernelP4NodePiPbS2_S2_S1_i'
GPGPU-Sim uArch: CTA/core = 3, limited by: threads
GPGPU-Sim uArch: core:  1, cta: 0 initialized @(1,0)
GPGPU-Sim uArch: Shader 2 bind to kernel 1 '_Z6KernelP4NodePiPbS2_S2_S1_i'
GPGPU-Sim uArch: core:  2, cta: 0 initialized @(1,0)
GPGPU-Sim uArch: Shader 3 bind to kernel 1 '_Z6KernelP4NodePiPbS2_S2_S1_i'
GPGPU-Sim uArch: core:  3, cta: 0 initialized @(1,0)
GPGPU-Sim uArch: Shader 4 bind to kernel 1 '_Z6KernelP4NodePiPbS2_S2_S1_i'
GPGPU-Sim uArch: core:  4, cta: 0 initialized @(1,0)
GPGPU-Sim uArch: Shader 5 bind to kernel 1 '_Z6KernelP4NodePiPbS2_S2_S1_i'
GPGPU-Sim uArch: core:  5, cta: 0 initialized @(1,0)
GPGPU-Sim uArch: Shader 6 bind to kernel 1 '_Z6KernelP4NodePiPbS2_S2_S1_i'
GPGPU-Sim uArch: core:  6, cta: 0 initialized @(1,0)
GPGPU-Sim uArch: Shader 7 bind to kernel 1 '_Z6KernelP4NodePiPbS2_S2_S1_i'
GPGPU-Sim uArch: core:  7, cta: 0 initialized @(1,0)
GPGPU-Sim uArch: Shader 8 bind to kernel 1 '_Z6KernelP4NodePiPbS2_S2_S1_i'
GPGPU-Sim uArch: core:  8, cta: 0 initialized @(1,0)
GPGPU-Sim uArch: Shader 9 bind to kernel 1 '_Z6KernelP4NodePiPbS2_S2_S1_i'
GPGPU-Sim uArch: core:  9, cta: 0 initialized @(1,0)
GPGPU-Sim uArch: Shader 10 bind to kernel 1 '_Z6KernelP4NodePiPbS2_S2_S1_i'
GPGPU-Sim uArch: core: 10, cta: 0 initialized @(1,0)
GPGPU-Sim uArch: Shader 11 bind to kernel 1 '_Z6KernelP4NodePiPbS2_S2_S1_i'
GPGPU-Sim uArch: core: 11, cta: 0 initialized @(1,0)
GPGPU-Sim uArch: Shader 12 bind to kernel 1 '_Z6KernelP4NodePiPbS2_S2_S1_i'
GPGPU-Sim uArch: core: 12, cta: 0 initialized @(1,0)
GPGPU-Sim uArch: Shader 13 bind to kernel 1 '_Z6KernelP4NodePiPbS2_S2_S1_i'
GPGPU-Sim uArch: core: 13, cta: 0 initialized @(1,0)
GPGPU-Sim uArch: Shader 14 bind to kernel 1 '_Z6KernelP4NodePiPbS2_S2_S1_i'
GPGPU-Sim uArch: core: 14, cta: 0 initialized @(1,0)
GPGPU-Sim uArch: Shader 0 bind to kernel 1 '_Z6KernelP4NodePiPbS2_S2_S1_i'
GPGPU-Sim uArch: core:  0, cta: 0 initialized @(1,0)
GPGPU-Sim uArch: core:  1, cta: 1 initialized @(2,0)
GPGPU-Sim uArch: core:  2, cta: 1 initialized @(2,0)
GPGPU-Sim uArch: core:  3, cta: 1 initialized @(2,0)
GPGPU-Sim uArch: core:  4, cta: 1 initialized @(2,0)
GPGPU-Sim uArch: core:  5, cta: 1 initialized @(2,0)
GPGPU-Sim uArch: core:  6, cta: 1 initialized @(2,0)
GPGPU-Sim uArch: core:  7, cta: 1 initialized @(2,0)
GPGPU-Sim uArch: core:  8, cta: 1 initialized @(2,0)
GPGPU-Sim uArch: core:  9, cta: 1 initialized @(2,0)
GPGPU-Sim uArch: core: 10, cta: 1 initialized @(2,0)
GPGPU-Sim uArch: core: 11, cta: 1 initialized @(2,0)
GPGPU-Sim uArch: core: 12, cta: 1 initialized @(2,0)
GPGPU-Sim uArch: core: 13, cta: 1 initialized @(2,0)
GPGPU-Sim uArch: core: 14, cta: 1 initialized @(2,0)
GPGPU-Sim uArch: core:  0, cta: 1 initialized @(2,0)
GPGPU-Sim uArch: core:  1, cta: 2 initialized @(3,0)
GPGPU-Sim uArch: core:  2, cta: 2 initialized @(3,0)
GPGPU-Sim uArch: core:  3, cta: 2 initialized @(3,0)
GPGPU-Sim uArch: core:  4, cta: 2 initialized @(3,0)
GPGPU-Sim uArch: core:  5, cta: 2 initialized @(3,0)
GPGPU-Sim uArch: core:  6, cta: 2 initialized @(3,0)
GPGPU-Sim uArch: core:  7, cta: 2 initialized @(3,0)
GPGPU-Sim uArch: core:  8, cta: 2 initialized @(3,0)
GPGPU-Sim uArch: core:  9, cta: 2 initialized @(3,0)
GPGPU-Sim uArch: core: 10, cta: 2 initialized @(3,0)
GPGPU-Sim uArch: core: 11, cta: 2 initialized @(3,0)
GPGPU-Sim uArch: core: 12, cta: 2 initialized @(3,0)
GPGPU-Sim uArch: core: 13, cta: 2 initialized @(3,0)
GPGPU-Sim uArch: core: 14, cta: 2 initialized @(3,0)
GPGPU-Sim uArch: core:  0, cta: 2 initialized @(3,0)
GPGPU-Sim PTX: 100000 instructions simulated : ctaid=(22,0,0) tid=(447,0,0)
GPGPU-Sim uArch: cycles simulated: 500  inst.: 92000 (ipc=184.0) sim_rate=46000 (inst/sec) elapsed = 0:0:00:02 / Tue Apr 16 16:54:33 2019
GPGPU-Sim PTX: 200000 instructions simulated : ctaid=(40,0,0) tid=(511,0,0)
GPGPU-Sim PTX: 300000 instructions simulated : ctaid=(36,0,0) tid=(445,0,0)
GPGPU-Sim uArch: Shader 3 finished CTA #0 (1264,0), 2 CTAs running
GPGPU-Sim uArch: core:  3, cta: 0 initialized @(1265,0)
GPGPU-Sim uArch: Shader 2 finished CTA #0 (1274,0), 2 CTAs running
GPGPU-Sim uArch: core:  2, cta: 0 initialized @(1275,0)
GPGPU-Sim uArch: Shader 0 finished CTA #0 (1277,0), 2 CTAs running
GPGPU-Sim uArch: core:  0, cta: 0 initialized @(1278,0)
GPGPU-Sim uArch: Shader 3 finished CTA #1 (1284,0), 2 CTAs running
GPGPU-Sim uArch: core:  3, cta: 1 initialized @(1285,0)
GPGPU-Sim uArch: Shader 0 finished CTA #1 (1294,0), 2 CTAs running
GPGPU-Sim uArch: Shader 0 finished CTA #2 (1294,0), 1 CTAs running
GPGPU-Sim uArch: core:  0, cta: 1 initialized @(1295,0)
GPGPU-Sim uArch: core:  0, cta: 2 initialized @(1296,0)
GPGPU-Sim uArch: Shader 4 finished CTA #0 (1296,0), 2 CTAs running
GPGPU-Sim uArch: Shader 4 finished CTA #1 (1296,0), 1 CTAs running
GPGPU-Sim uArch: Shader 5 finished CTA #0 (1296,0), 2 CTAs running
GPGPU-Sim uArch: core:  4, cta: 0 initialized @(1297,0)
GPGPU-Sim uArch: core:  5, cta: 0 initialized @(1297,0)
GPGPU-Sim uArch: core:  4, cta: 1 initialized @(1298,0)
GPGPU-Sim uArch: Shader 2 finished CTA #1 (1298,0), 2 CTAs running
GPGPU-Sim uArch: core:  2, cta: 1 initialized @(1299,0)
GPGPU-Sim uArch: Shader 6 finished CTA #0 (1301,0), 2 CTAs running
GPGPU-Sim uArch: core:  6, cta: 0 initialized @(1302,0)
GPGPU-Sim uArch: Shader 1 finished CTA #1 (1303,0), 2 CTAs running
GPGPU-Sim uArch: core:  1, cta: 1 initialized @(1304,0)
GPGPU-Sim uArch: Shader 11 finished CTA #0 (1315,0), 2 CTAs running
GPGPU-Sim uArch: core: 11, cta: 0 initialized @(1316,0)
GPGPU-Sim uArch: Shader 5 finished CTA #1 (1316,0), 2 CTAs running
GPGPU-Sim uArch: core:  5, cta: 1 initialized @(1317,0)
GPGPU-Sim uArch: Shader 6 finished CTA #1 (1326,0), 2 CTAs running
GPGPU-Sim uArch: core:  6, cta: 1 initialized @(1327,0)
GPGPU-Sim uArch: Shader 9 finished CTA #0 (1328,0), 2 CTAs running
GPGPU-Sim uArch: core:  9, cta: 0 initialized @(1329,0)
GPGPU-Sim uArch: Shader 7 finished CTA #0 (1335,0), 2 CTAs running
GPGPU-Sim uArch: Shader 7 finished CTA #1 (1335,0), 1 CTAs running
GPGPU-Sim uArch: Shader 8 finished CTA #0 (1335,0), 2 CTAs running
GPGPU-Sim uArch: Shader 8 finished CTA #1 (1335,0), 1 CTAs running
GPGPU-Sim uArch: core:  7, cta: 0 initialized @(1336,0)
GPGPU-Sim uArch: core:  8, cta: 0 initialized @(1336,0)
GPGPU-Sim uArch: Shader 9 finished CTA #1 (1346,0), 2 CTAs running
GPGPU-Sim uArch: Shader 12 finished CTA #0 (1348,0), 2 CTAs running
GPGPU-Sim uArch: Shader 11 finished CTA #1 (1353,0), 2 CTAs running
GPGPU-Sim uArch: Shader 10 finished CTA #0 (1358,0), 2 CTAs running
GPGPU-Sim uArch: Shader 10 finished CTA #1 (1358,0), 1 CTAs running
GPGPU-Sim uArch: Shader 12 finished CTA #1 (1364,0), 1 CTAs running
GPGPU-Sim uArch: Shader 13 finished CTA #0 (1364,0), 2 CTAs running
GPGPU-Sim uArch: Shader 13 finished CTA #1 (1370,0), 1 CTAs running
GPGPU-Sim uArch: Shader 14 finished CTA #0 (1370,0), 2 CTAs running
GPGPU-Sim uArch: Shader 13 finished CTA #2 (1371,0), 0 CTAs running
GPGPU-Sim uArch: Shader 13 empty (release kernel 1 '_Z6KernelP4NodePiPbS2_S2_S1_i').
GPGPU-Sim uArch: Shader 14 finished CTA #1 (1372,0), 1 CTAs running
GPGPU-Sim uArch: Shader 11 finished CTA #2 (1373,0), 1 CTAs running
GPGPU-Sim uArch: Shader 10 finished CTA #2 (1374,0), 0 CTAs running
GPGPU-Sim uArch: Shader 10 empty (release kernel 1 '_Z6KernelP4NodePiPbS2_S2_S1_i').
GPGPU-Sim uArch: Shader 4 finished CTA #2 (1375,0), 2 CTAs running
GPGPU-Sim uArch: Shader 12 finished CTA #2 (1377,0), 0 CTAs running
GPGPU-Sim uArch: Shader 12 empty (release kernel 1 '_Z6KernelP4NodePiPbS2_S2_S1_i').
GPGPU-Sim uArch: Shader 14 finished CTA #2 (1377,0), 0 CTAs running
GPGPU-Sim uArch: Shader 14 empty (release kernel 1 '_Z6KernelP4NodePiPbS2_S2_S1_i').
GPGPU-Sim uArch: Shader 7 finished CTA #2 (1383,0), 1 CTAs running
GPGPU-Sim uArch: Shader 8 finished CTA #2 (1383,0), 1 CTAs running
GPGPU-Sim uArch: Shader 2 finished CTA #2 (1394,0), 2 CTAs running
GPGPU-Sim uArch: Shader 5 finished CTA #2 (1396,0), 2 CTAs running
GPGPU-Sim uArch: Shader 1 finished CTA #2 (1399,0), 2 CTAs running
GPGPU-Sim uArch: Shader 6 finished CTA #2 (1405,0), 2 CTAs running
GPGPU-Sim PTX: 400000 instructions simulated : ctaid=(61,0,0) tid=(345,0,0)
GPGPU-Sim uArch: Shader 9 finished CTA #2 (1461,0), 1 CTAs running
GPGPU-Sim uArch: Shader 3 finished CTA #2 (1486,0), 2 CTAs running
GPGPU-Sim uArch: cycles simulated: 1500  inst.: 404420 (ipc=269.6) sim_rate=134806 (inst/sec) elapsed = 0:0:00:03 / Tue Apr 16 16:54:34 2019
GPGPU-Sim uArch: Shader 8 finished CTA #0 (1725,0), 0 CTAs running
GPGPU-Sim uArch: Shader 8 empty (release kernel 1 '_Z6KernelP4NodePiPbS2_S2_S1_i').
GPGPU-Sim uArch: Shader 1 finished CTA #1 (1730,0), 1 CTAs running
GPGPU-Sim uArch: Shader 11 finished CTA #0 (1742,0), 0 CTAs running
GPGPU-Sim uArch: Shader 11 empty (release kernel 1 '_Z6KernelP4NodePiPbS2_S2_S1_i').
GPGPU-Sim uArch: Shader 7 finished CTA #0 (1749,0), 0 CTAs running
GPGPU-Sim uArch: Shader 7 empty (release kernel 1 '_Z6KernelP4NodePiPbS2_S2_S1_i').
GPGPU-Sim uArch: Shader 3 finished CTA #0 (1762,0), 1 CTAs running
GPGPU-Sim uArch: Shader 9 finished CTA #0 (1762,0), 0 CTAs running
GPGPU-Sim uArch: Shader 9 empty (release kernel 1 '_Z6KernelP4NodePiPbS2_S2_S1_i').
GPGPU-Sim uArch: Shader 4 finished CTA #0 (1773,0), 1 CTAs running
GPGPU-Sim uArch: Shader 6 finished CTA #0 (1786,0), 1 CTAs running
GPGPU-Sim uArch: Shader 0 finished CTA #0 (1790,0), 2 CTAs running
GPGPU-Sim uArch: Shader 2 finished CTA #0 (1791,0), 1 CTAs running
GPGPU-Sim uArch: Shader 5 finished CTA #0 (1791,0), 1 CTAs running
GPGPU-Sim uArch: Shader 3 finished CTA #1 (1808,0), 0 CTAs running
GPGPU-Sim uArch: Shader 3 empty (release kernel 1 '_Z6KernelP4NodePiPbS2_S2_S1_i').
GPGPU-Sim uArch: Shader 4 finished CTA #1 (1818,0), 0 CTAs running
GPGPU-Sim uArch: Shader 4 empty (release kernel 1 '_Z6KernelP4NodePiPbS2_S2_S1_i').
GPGPU-Sim uArch: Shader 5 finished CTA #1 (1821,0), 0 CTAs running
GPGPU-Sim uArch: Shader 5 empty (release kernel 1 '_Z6KernelP4NodePiPbS2_S2_S1_i').
GPGPU-Sim uArch: Shader 0 finished CTA #1 (1825,0), 1 CTAs running
GPGPU-Sim uArch: Shader 2 finished CTA #1 (1829,0), 0 CTAs running
GPGPU-Sim uArch: Shader 2 empty (release kernel 1 '_Z6KernelP4NodePiPbS2_S2_S1_i').
GPGPU-Sim uArch: Shader 6 finished CTA #1 (1830,0), 0 CTAs running
GPGPU-Sim uArch: Shader 6 empty (release kernel 1 '_Z6KernelP4NodePiPbS2_S2_S1_i').
GPGPU-Sim uArch: Shader 0 finished CTA #2 (1896,0), 0 CTAs running
GPGPU-Sim uArch: Shader 0 empty (release kernel 1 '_Z6KernelP4NodePiPbS2_S2_S1_i').
GPGPU-Sim uArch: Shader 1 finished CTA #0 (8348,0), 0 CTAs running
GPGPU-Sim uArch: Shader 1 empty (release kernel 1 '_Z6KernelP4NodePiPbS2_S2_S1_i').
GPGPU-Sim uArch: GPU detected kernel '_Z6KernelP4NodePiPbS2_S2_S1_i' finished on shader 1.
kernel_name = _Z6KernelP4NodePiPbS2_S2_S1_i 
kernel_launch_uid = 1 
gpu_sim_cycle = 8349
gpu_sim_insn = 450436
gpu_ipc =      53.9509
gpu_tot_sim_cycle = 8349
gpu_tot_sim_insn = 450436
gpu_tot_ipc =      53.9509
gpu_tot_issued_cta = 0
gpu_stall_dramfull = 309
gpu_stall_icnt2sh    = 157
gpu_total_sim_rate=112609

========= Core cache stats =========
L1I_cache:
	L1I_total_cache_accesses = 10197
	L1I_total_cache_misses = 941
	L1I_total_cache_miss_rate = 0.0923
	L1I_total_cache_pending_hits = 0
	L1I_total_cache_reservation_fails = 4706
L1D_cache:
	L1D_cache_core[0]: Access = 96, Miss = 24, Miss_rate = 0.250, Pending_hits = 72, Reservation_fails = 0
	L1D_cache_core[1]: Access = 172, Miss = 63, Miss_rate = 0.366, Pending_hits = 48, Reservation_fails = 217
	L1D_cache_core[2]: Access = 80, Miss = 20, Miss_rate = 0.250, Pending_hits = 60, Reservation_fails = 202
	L1D_cache_core[3]: Access = 80, Miss = 20, Miss_rate = 0.250, Pending_hits = 60, Reservation_fails = 211
	L1D_cache_core[4]: Access = 80, Miss = 20, Miss_rate = 0.250, Pending_hits = 60, Reservation_fails = 197
	L1D_cache_core[5]: Access = 80, Miss = 20, Miss_rate = 0.250, Pending_hits = 60, Reservation_fails = 200
	L1D_cache_core[6]: Access = 80, Miss = 20, Miss_rate = 0.250, Pending_hits = 60, Reservation_fails = 189
	L1D_cache_core[7]: Access = 64, Miss = 16, Miss_rate = 0.250, Pending_hits = 48, Reservation_fails = 218
	L1D_cache_core[8]: Access = 56, Miss = 14, Miss_rate = 0.250, Pending_hits = 42, Reservation_fails = 198
	L1D_cache_core[9]: Access = 64, Miss = 16, Miss_rate = 0.250, Pending_hits = 48, Reservation_fails = 217
	L1D_cache_core[10]: Access = 48, Miss = 12, Miss_rate = 0.250, Pending_hits = 36, Reservation_fails = 207
	L1D_cache_core[11]: Access = 64, Miss = 16, Miss_rate = 0.250, Pending_hits = 48, Reservation_fails = 184
	L1D_cache_core[12]: Access = 48, Miss = 12, Miss_rate = 0.250, Pending_hits = 36, Reservation_fails = 212
	L1D_cache_core[13]: Access = 48, Miss = 12, Miss_rate = 0.250, Pending_hits = 36, Reservation_fails = 0
	L1D_cache_core[14]: Access = 48, Miss = 12, Miss_rate = 0.250, Pending_hits = 36, Reservation_fails = 126
	L1D_total_cache_accesses = 1108
	L1D_total_cache_misses = 297
	L1D_total_cache_miss_rate = 0.2681
	L1D_total_cache_pending_hits = 750
	L1D_total_cache_reservation_fails = 2578
	L1D_cache_data_port_util = 0.002
	L1D_cache_fill_port_util = 0.008
L1C_cache:
	L1C_total_cache_accesses = 2041
	L1C_total_cache_misses = 480
	L1C_total_cache_miss_rate = 0.2352
	L1C_total_cache_pending_hits = 0
	L1C_total_cache_reservation_fails = 3411
L1T_cache:
	L1T_total_cache_accesses = 0
	L1T_total_cache_misses = 0
	L1T_total_cache_pending_hits = 0
	L1T_total_cache_reservation_fails = 0

Total_core_cache_stats:
	Total_core_cache_stats_breakdown[GLOBAL_ACC_R][HIT] = 60
	Total_core_cache_stats_breakdown[GLOBAL_ACC_R][HIT_RESERVED] = 750
	Total_core_cache_stats_breakdown[GLOBAL_ACC_R][MISS] = 267
	Total_core_cache_stats_breakdown[GLOBAL_ACC_R][RESERVATION_FAIL] = 2578
	Total_core_cache_stats_breakdown[CONST_ACC_R][HIT] = 1561
	Total_core_cache_stats_breakdown[CONST_ACC_R][MISS] = 480
	Total_core_cache_stats_breakdown[CONST_ACC_R][RESERVATION_FAIL] = 3411
	Total_core_cache_stats_breakdown[GLOBAL_ACC_W][HIT] = 1
	Total_core_cache_stats_breakdown[GLOBAL_ACC_W][MISS] = 30
	Total_core_cache_stats_breakdown[INST_ACC_R][HIT] = 9256
	Total_core_cache_stats_breakdown[INST_ACC_R][MISS] = 941
	Total_core_cache_stats_breakdown[INST_ACC_R][RESERVATION_FAIL] = 4706
Shader 0 warp_id issue ditsribution:
warp_id:
0, 1, 2, 3, 4, 5, 6, 7, 8, 9, 10, 11, 12, 13, 14, 15, 16, 17, 18, 19, 20, 21, 22, 23, 24, 25, 26, 27, 28, 29, 30, 31, 32, 33, 34, 35, 36, 37, 38, 39, 40, 41, 42, 43, 44, 45, 46, 47, 
distro:
30, 30, 30, 30, 30, 30, 30, 30, 30, 30, 30, 30, 30, 30, 30, 30, 30, 30, 30, 30, 30, 30, 30, 30, 30, 30, 30, 30, 30, 30, 30, 30, 30, 30, 30, 30, 30, 30, 30, 30, 30, 30, 30, 30, 30, 30, 30, 30, 
gpgpu_n_tot_thrd_icount = 495040
gpgpu_n_tot_w_icount = 15470
gpgpu_n_stall_shd_mem = 5989
gpgpu_n_mem_read_local = 0
gpgpu_n_mem_write_local = 0
gpgpu_n_mem_read_global = 267
gpgpu_n_mem_write_global = 31
gpgpu_n_mem_texture = 0
gpgpu_n_mem_const = 15
gpgpu_n_load_insn  = 32077
gpgpu_n_store_insn = 31
gpgpu_n_shmem_insn = 0
gpgpu_n_tex_insn = 0
gpgpu_n_const_mem_insn = 0
gpgpu_n_param_mem_insn = 64289
gpgpu_n_shmem_bkconflict = 0
gpgpu_n_cache_bkconflict = 0
gpgpu_n_intrawarp_mshr_merge = 0
gpgpu_n_cmem_portconflict = 3411
gpgpu_stall_shd_mem[c_mem][bk_conf] = 3411
gpgpu_stall_shd_mem[c_mem][mshr_rc] = 0
gpgpu_stall_shd_mem[c_mem][icnt_rc] = 0
gpgpu_stall_shd_mem[c_mem][data_port_stall] = 0
gpgpu_stall_shd_mem[t_mem][mshr_rc] = 0
gpgpu_stall_shd_mem[t_mem][icnt_rc] = 0
gpgpu_stall_shd_mem[t_mem][data_port_stall] = 0
gpgpu_stall_shd_mem[s_mem][bk_conf] = 0
gpgpu_stall_shd_mem[gl_mem][bk_conf] = 0
gpgpu_stall_shd_mem[gl_mem][coal_stall] = 2578
gpgpu_stall_shd_mem[gl_mem][data_port_stall] = 0
gpgpu_stall_shd_mem[g_mem_ld][mshr_rc] = 0
gpgpu_stall_shd_mem[g_mem_ld][icnt_rc] = 0
gpgpu_stall_shd_mem[g_mem_ld][wb_icnt_rc] = 0
gpgpu_stall_shd_mem[g_mem_ld][wb_rsrv_fail] = 0
gpgpu_stall_shd_mem[g_mem_st][mshr_rc] = 0
gpgpu_stall_shd_mem[g_mem_st][icnt_rc] = 0
gpgpu_stall_shd_mem[g_mem_st][wb_icnt_rc] = 0
gpgpu_stall_shd_mem[g_mem_st][wb_rsrv_fail] = 0
gpgpu_stall_shd_mem[l_mem_ld][mshr_rc] = 0
gpgpu_stall_shd_mem[l_mem_ld][icnt_rc] = 0
gpgpu_stall_shd_mem[l_mem_ld][wb_icnt_rc] = 0
gpgpu_stall_shd_mem[l_mem_ld][wb_rsrv_fail] = 0
gpgpu_stall_shd_mem[l_mem_st][mshr_rc] = 0
gpgpu_stall_shd_mem[l_mem_st][icnt_rc] = 0
gpgpu_stall_shd_mem[l_mem_ld][wb_icnt_rc] = 0
gpgpu_stall_shd_mem[l_mem_ld][wb_rsrv_fail] = 0
gpu_reg_bank_conflict_stalls = 0
Warp Occupancy Distribution:
Stall:11676	W0_Idle:17819	W0_Scoreboard:18719	W1:406	W2:0	W3:0	W4:0	W5:0	W6:0	W7:0	W8:0	W9:0	W10:0	W11:0	W12:0	W13:0	W14:0	W15:0	W16:0	W17:0	W18:0	W19:0	W20:0	W21:0	W22:0	W23:0	W24:0	W25:0	W26:0	W27:0	W28:0	W29:0	W30:0	W31:0	W32:15064
traffic_breakdown_coretomem[CONST_ACC_R] = 120 {8:15,}
traffic_breakdown_coretomem[GLOBAL_ACC_R] = 2136 {8:267,}
traffic_breakdown_coretomem[GLOBAL_ACC_W] = 1240 {40:31,}
traffic_breakdown_coretomem[INST_ACC_R] = 256 {8:32,}
traffic_breakdown_memtocore[CONST_ACC_R] = 1080 {72:15,}
traffic_breakdown_memtocore[GLOBAL_ACC_R] = 36312 {136:267,}
traffic_breakdown_memtocore[GLOBAL_ACC_W] = 248 {8:31,}
traffic_breakdown_memtocore[INST_ACC_R] = 4352 {136:32,}
maxmrqlatency = 25 
maxdqlatency = 0 
maxmflatency = 380 
averagemflatency = 263 
max_icnt2mem_latency = 36 
max_icnt2sh_latency = 8348 
mrq_lat_table:253 	12 	34 	25 	6 	0 	0 	0 	0 	0 	0 	0 	0 	0 	0 	0 	0 	0 	0 	0 	0 	0 	0 	0 	0 	0 	0 	0 	0 	0 	0 	0 	
dq_lat_table:0 	0 	0 	0 	0 	0 	0 	0 	0 	0 	0 	0 	0 	0 	0 	0 	0 	0 	0 	0 	0 	0 	0 	0 	0 	0 	0 	0 	0 	0 	0 	0 	
mf_lat_table:0 	0 	0 	0 	0 	0 	0 	36 	277 	0 	0 	0 	0 	0 	0 	0 	0 	0 	0 	0 	0 	0 	0 	0 	0 	0 	0 	0 	0 	0 	0 	0 	
icnt2mem_lat_table:0 	0 	0 	334 	8 	3 	0 	0 	0 	0 	0 	0 	0 	0 	0 	0 	0 	0 	0 	0 	0 	0 	0 	0 	
icnt2sh_lat_table:0 	0 	0 	226 	55 	1 	0 	0 	0 	0 	1 	6 	22 	2 	0 	0 	0 	0 	0 	0 	0 	0 	0 	0 	
mf_lat_pw_table:0 	0 	0 	0 	0 	0 	0 	9 	6 	0 	0 	0 	0 	0 	0 	0 	0 	0 	0 	0 	0 	0 	0 	0 	0 	0 	0 	0 	0 	0 	0 	0 	
maximum concurrent accesses to same row:
dram[0]:         1         0         0         0         0         0         0         0         0         0         0         0         0         0         0         0 
dram[1]:         0         0         0         0         0         0         0         0         0         0         0         0         0         0         0         0 
dram[2]:         0         0         0         0         0         1         0         0         0         0         0         0         0         0         0         0 
dram[3]:         0         0         0         0         0         0         0         0         0         0         0         0         0         0         0         0 
dram[4]:         0         0         0         0         0         0         0         0         0         0         0         0         0         0         0         0 
dram[5]:         0         0         0         0         0         0         0         0         0         0         0         0         0         0         0         0 
maximum service time to same row:
dram[0]:       634         0       949       951      1232      1697      2725      5413         0      7521      8318         0         0         0      1872         0 
dram[1]:      1194         0       915       938      1029      1693      3897         0         0         0      3024         0         0         0         0         0 
dram[2]:         0         0       938       954      1066      1550         0      3494      7127         0         0         0         0         0         0         0 
dram[3]:         0         0       916       935      1650      1660         0      3091         0      6596         0      5807         0         0         0         0 
dram[4]:         0         0       943       963      1659      1669         0      2419      3829         0         0         0         0         0         0         0 
dram[5]:         0         0       925       919      1688      1660         0      7588         0         0      7924      3426         0         0         0         0 
average row accesses per activate:
dram[0]:  1.000000      -nan 14.000000 14.000000  8.000000 11.000000  4.000000  2.000000      -nan  2.000000  2.000000      -nan      -nan      -nan  1.000000      -nan 
dram[1]:  2.000000      -nan 14.000000 14.000000 10.000000  9.000000  4.000000      -nan      -nan      -nan  4.000000      -nan      -nan      -nan      -nan      -nan 
dram[2]:      -nan      -nan 14.000000 14.000000  8.000000  6.000000      -nan  3.000000  2.000000      -nan      -nan      -nan      -nan      -nan      -nan      -nan 
dram[3]:      -nan      -nan 14.000000 16.000000 10.000000  6.000000      -nan  2.000000      -nan  2.000000      -nan  2.000000      -nan      -nan      -nan      -nan 
dram[4]:      -nan      -nan 14.000000 16.000000 11.000000  7.000000      -nan  1.000000  2.000000      -nan      -nan      -nan      -nan      -nan      -nan      -nan 
dram[5]:      -nan      -nan 14.000000 16.000000 10.000000  9.000000      -nan  1.000000      -nan      -nan  2.000000  4.000000      -nan      -nan      -nan      -nan 
average row locality = 330/46 = 7.173913
number of total memory accesses made:
dram[0]:         0         0         0         0         0         0         0         0         0         0         0         0         0         0         0         0 
dram[1]:         0         0         0         0         0         0         0         0         0         0         0         0         0         0         0         0 
dram[2]:         0         0         0         0         0         0         0         0         0         0         0         0         0         0         0         0 
dram[3]:         0         0         0         0         0         0         0         0         0         0         0         0         0         0         0         0 
dram[4]:         0         0         0         0         0         0         0         0         0         0         0         0         0         0         0         0 
dram[5]:         0         0         0         0         0         0         0         0         0         0         0         0         0         0         0         0 
total accesses: 0
min_bank_accesses = 0!
min_chip_accesses = 0!
number of total read accesses:
dram[0]:         3         0        14        14         8         9         3         1         0         1         1         0         0         0         1         0 
dram[1]:         2         0        14        14         9         8         3         0         0         0         2         0         0         0         0         0 
dram[2]:         0         0        14        14         7        10         0         2         1         0         0         0         0         0         0         0 
dram[3]:         0         0        14        16         8         6         0         2         0         1         0         1         0         0         0         0 
dram[4]:         0         0        14        16         9         7         0         1         1         0         0         0         0         0         0         0 
dram[5]:         0         0        14        16         8         8         0         1         0         0         1         2         0         0         0         0 
total reads: 301
min_bank_accesses = 0!
chip skew: 55/48 = 1.15
number of total write accesses:
dram[0]:         0         0         0         0         0         2         1         1         0         1         1         0         0         0         0         0 
dram[1]:         0         0         0         0         1         1         1         0         0         0         2         0         0         0         0         0 
dram[2]:         0         0         0         0         1         2         0         1         1         0         0         0         0         0         0         0 
dram[3]:         0         0         0         0         2         0         0         0         0         1         0         1         0         0         0         0 
dram[4]:         0         0         0         0         2         0         0         0         1         0         0         0         0         0         0         0 
dram[5]:         0         0         0         0         2         1         0         0         0         0         1         2         0         0         0         0 
total reads: 29
min_bank_accesses = 0!
chip skew: 6/3 = 2.00
average mf latency per bank:
dram[0]:       1314    none         261       269       263       218       193       125    none         126       126    none      none      none         268    none  
dram[1]:          0    none         292       265       234       233       193    none      none      none         124    none      none      none      none      none  
dram[2]:     none      none         260       262       229       218    none         171       126    none      none      none      none      none      none      none  
dram[3]:     none      none         264       277       214       268    none         263    none         126    none         125    none      none      none      none  
dram[4]:     none      none         261       263       225       260    none         268       125    none      none      none      none      none      none      none  
dram[5]:     none      none         263       266       212       235    none         268    none      none         126       124    none      none      none      none  
maximum mf latency per bank:
dram[0]:        283         0       272       290       271       290       268       251         0       252       252         0         0         0       268         0
dram[1]:          0         0       380       271       268       273       268         0         0         0       252         0         0         0         0         0
dram[2]:          0         0       268       278       271       279         0       268       252         0         0         0         0         0         0         0
dram[3]:          0         0       274       283       287       286         0       268         0       252         0       251         0         0         0         0
dram[4]:          0         0       271       272       271       268         0       268       251         0         0         0         0         0         0         0
dram[5]:          0         0       277       277       280       281         0       268         0         0       252       251         0         0         0         0

Number of Memory Banks Accessed per Memory Operation per Warp (from 0):
0	0	0	0	0	0	0	0	0	0	0	0	0	0	0	0	0	0	0	0	0	0	0	0	0	0	0	0	0	0	0	0	0	0	0	0	0	0	0	0	0	0	0	0	0	0	0	0	0	0	0	0	0	0	0	0	0	0	0	0	0	0	0	0	0	0	0	0	0	0	0	0	0	0	0	0	0	0	0	0	0	0	0	0	0	0	0	0	0	0	0	0	0	0	0	0	
Average # of Memory Banks Accessed per Memory Operation per Warp=-nan

position of mrq chosen
0	0	0	0	0	0	0	0	0	0	0	0	0	0	0	0	

average position of mrq chosen = -nan
Memory Partition 0: 
Cache L2_bank_000:
MSHR contents

Cache L2_bank_001:
MSHR contents

In Dram Latency Queue (total = 0): 
DRAM[0]: 16 bks, busW=4 BL=8 CL=12, tRRD=2 tCCD=6, tRCD=12 tRAS=28 tRP=12 tRC=40
n_cmd=11020 n_nop=10890 n_act=12 n_pre=2 n_req=61 n_rd=110 n_write=6 bw_util=0.02105
n_activity=756 dram_eff=0.3069
bk0: 6a 10945i bk1: 0a 11019i bk2: 28a 10928i bk3: 28a 10866i bk4: 16a 10970i bk5: 18a 10923i bk6: 6a 10985i bk7: 2a 10997i bk8: 0a 11019i bk9: 2a 10996i bk10: 2a 10995i bk11: 0a 11018i bk12: 0a 11018i bk13: 0a 11019i bk14: 2a 11005i bk15: 0a 11020i 
dram_util_bins: 0 0 0 0 0 0 0 0 0 0
dram_eff_bins: 0 0 0 0 0 0 0 0 0 0
mrqq: max=3 avg=0.0139746
Memory Partition 1: 
Cache L2_bank_002:
MSHR contents

Cache L2_bank_003:
MSHR contents

In Dram Latency Queue (total = 0): 
DRAM[1]: 16 bks, busW=4 BL=8 CL=12, tRRD=2 tCCD=6, tRCD=12 tRAS=28 tRP=12 tRC=40
n_cmd=11020 n_nop=10904 n_act=7 n_pre=0 n_req=57 n_rd=104 n_write=5 bw_util=0.01978
n_activity=703 dram_eff=0.3101
bk0: 4a 11001i bk1: 0a 11022i bk2: 28a 10937i bk3: 28a 10924i bk4: 18a 10956i bk5: 16a 10959i bk6: 6a 10983i bk7: 0a 11019i bk8: 0a 11019i bk9: 0a 11019i bk10: 4a 10982i bk11: 0a 11018i bk12: 0a 11018i bk13: 0a 11020i bk14: 0a 11020i bk15: 0a 11022i 
dram_util_bins: 0 0 0 0 0 0 0 0 0 0
dram_eff_bins: 0 0 0 0 0 0 0 0 0 0
mrqq: max=2 avg=0.0084392
Memory Partition 2: 
Cache L2_bank_004:
MSHR contents

Cache L2_bank_005:
MSHR contents
MSHR: tag=0x80240c00, atomic=0 1 entries : 0x7fb93fc670f0 :  mf: uid= 24070, sid01:w00, part=2, addr=0x80240c20, load , size=32, unknown  status = IN_PARTITION_DRAM (8346), 

In Dram Latency Queue (total = 0): 
DRAM[2]: 16 bks, busW=4 BL=8 CL=12, tRRD=2 tCCD=6, tRCD=12 tRAS=28 tRP=12 tRC=40
n_cmd=11020 n_nop=10911 n_act=7 n_pre=1 n_req=53 n_rd=96 n_write=5 bw_util=0.01833
n_activity=671 dram_eff=0.301
bk0: 0a 11021i bk1: 0a 11022i bk2: 28a 10937i bk3: 28a 10913i bk4: 14a 10957i bk5: 20a 10921i bk6: 0a 11019i bk7: 4a 10988i bk8: 2a 10995i bk9: 0a 11017i bk10: 0a 11017i bk11: 0a 11018i bk12: 0a 11018i bk13: 0a 11019i bk14: 0a 11020i bk15: 0a 11021i 
dram_util_bins: 0 0 0 0 0 0 0 0 0 0
dram_eff_bins: 0 0 0 0 0 0 0 0 0 0
mrqq: max=1 avg=0.0053539
Memory Partition 3: 
Cache L2_bank_006:
MSHR contents

Cache L2_bank_007:
MSHR contents

In Dram Latency Queue (total = 0): 
DRAM[3]: 16 bks, busW=4 BL=8 CL=12, tRRD=2 tCCD=6, tRCD=12 tRAS=28 tRP=12 tRC=40
n_cmd=11020 n_nop=10913 n_act=7 n_pre=0 n_req=52 n_rd=96 n_write=4 bw_util=0.01815
n_activity=573 dram_eff=0.349
bk0: 0a 11021i bk1: 0a 11023i bk2: 28a 10938i bk3: 32a 10883i bk4: 16a 10947i bk5: 12a 10960i bk6: 0a 11021i bk7: 4a 11000i bk8: 0a 11019i bk9: 2a 10996i bk10: 0a 11018i bk11: 2a 10996i bk12: 0a 11017i bk13: 0a 11018i bk14: 0a 11018i bk15: 0a 11020i 
dram_util_bins: 0 0 0 0 0 0 0 0 0 0
dram_eff_bins: 0 0 0 0 0 0 0 0 0 0
mrqq: max=3 avg=0.0166062
Memory Partition 4: 
Cache L2_bank_008:
MSHR contents

Cache L2_bank_009:
MSHR contents

In Dram Latency Queue (total = 0): 
DRAM[4]: 16 bks, busW=4 BL=8 CL=12, tRRD=2 tCCD=6, tRCD=12 tRAS=28 tRP=12 tRC=40
n_cmd=11020 n_nop=10915 n_act=6 n_pre=0 n_req=51 n_rd=96 n_write=3 bw_util=0.01797
n_activity=588 dram_eff=0.3367
bk0: 0a 11021i bk1: 0a 11023i bk2: 28a 10943i bk3: 32a 10907i bk4: 18a 10945i bk5: 14a 10980i bk6: 0a 11020i bk7: 2a 11004i bk8: 2a 10996i bk9: 0a 11017i bk10: 0a 11018i bk11: 0a 11019i bk12: 0a 11019i bk13: 0a 11019i bk14: 0a 11019i bk15: 0a 11020i 
dram_util_bins: 0 0 0 0 0 0 0 0 0 0
dram_eff_bins: 0 0 0 0 0 0 0 0 0 0
mrqq: max=2 avg=0.00526316
Memory Partition 5: 
Cache L2_bank_010:
MSHR contents

Cache L2_bank_011:
MSHR contents

In Dram Latency Queue (total = 0): 
DRAM[5]: 16 bks, busW=4 BL=8 CL=12, tRRD=2 tCCD=6, tRCD=12 tRAS=28 tRP=12 tRC=40
n_cmd=11020 n_nop=10907 n_act=7 n_pre=0 n_req=56 n_rd=100 n_write=6 bw_util=0.01924
n_activity=645 dram_eff=0.3287
bk0: 0a 11020i bk1: 0a 11023i bk2: 28a 10941i bk3: 32a 10877i bk4: 16a 10948i bk5: 16a 10941i bk6: 0a 11018i bk7: 2a 11003i bk8: 0a 11019i bk9: 0a 11020i bk10: 2a 10997i bk11: 4a 10982i bk12: 0a 11018i bk13: 0a 11019i bk14: 0a 11019i bk15: 0a 11019i 
dram_util_bins: 0 0 0 0 0 0 0 0 0 0
dram_eff_bins: 0 0 0 0 0 0 0 0 0 0
mrqq: max=3 avg=0.0130672

========= L2 cache stats =========
L2_cache_bank[0]: Access = 58, Miss = 30, Miss_rate = 0.517, Pending_hits = 6, Reservation_fails = 227
L2_cache_bank[1]: Access = 25, Miss = 25, Miss_rate = 1.000, Pending_hits = 0, Reservation_fails = 0
L2_cache_bank[2]: Access = 44, Miss = 30, Miss_rate = 0.682, Pending_hits = 3, Reservation_fails = 111
L2_cache_bank[3]: Access = 22, Miss = 22, Miss_rate = 1.000, Pending_hits = 0, Reservation_fails = 0
L2_cache_bank[4]: Access = 22, Miss = 22, Miss_rate = 1.000, Pending_hits = 0, Reservation_fails = 0
L2_cache_bank[5]: Access = 26, Miss = 26, Miss_rate = 1.000, Pending_hits = 0, Reservation_fails = 0
L2_cache_bank[6]: Access = 22, Miss = 22, Miss_rate = 1.000, Pending_hits = 0, Reservation_fails = 0
L2_cache_bank[7]: Access = 27, Miss = 26, Miss_rate = 0.963, Pending_hits = 0, Reservation_fails = 0
L2_cache_bank[8]: Access = 25, Miss = 24, Miss_rate = 0.960, Pending_hits = 0, Reservation_fails = 0
L2_cache_bank[9]: Access = 24, Miss = 24, Miss_rate = 1.000, Pending_hits = 0, Reservation_fails = 0
L2_cache_bank[10]: Access = 23, Miss = 23, Miss_rate = 1.000, Pending_hits = 0, Reservation_fails = 0
L2_cache_bank[11]: Access = 27, Miss = 27, Miss_rate = 1.000, Pending_hits = 0, Reservation_fails = 0
L2_total_cache_accesses = 345
L2_total_cache_misses = 301
L2_total_cache_miss_rate = 0.8725
L2_total_cache_pending_hits = 9
L2_total_cache_reservation_fails = 338
L2_total_cache_breakdown:
	L2_cache_stats_breakdown[GLOBAL_ACC_R][MISS] = 267
	L2_cache_stats_breakdown[CONST_ACC_R][HIT] = 11
	L2_cache_stats_breakdown[CONST_ACC_R][HIT_RESERVED] = 3
	L2_cache_stats_breakdown[CONST_ACC_R][MISS] = 1
	L2_cache_stats_breakdown[CONST_ACC_R][RESERVATION_FAIL] = 111
	L2_cache_stats_breakdown[GLOBAL_ACC_W][HIT] = 2
	L2_cache_stats_breakdown[GLOBAL_ACC_W][MISS] = 29
	L2_cache_stats_breakdown[INST_ACC_R][HIT] = 22
	L2_cache_stats_breakdown[INST_ACC_R][HIT_RESERVED] = 6
	L2_cache_stats_breakdown[INST_ACC_R][MISS] = 4
	L2_cache_stats_breakdown[INST_ACC_R][RESERVATION_FAIL] = 227
L2_cache_data_port_util = 0.001
L2_cache_fill_port_util = 0.012

icnt_total_pkts_mem_to_simt=1571
icnt_total_pkts_simt_to_mem=376
LD_mem_lat_dist  0 0 0 0 0 0 0 0 0 0 0 0 0 0 0 0 0 0 0 0 0 0 0 0 0 0 0
ST_mem_lat_dist  0 0 0 0 0 0 0 0 0 0 0 0 0 0 0 0 0 0 0 0 0 0 0 0 0 0 0
----------------------------Interconnect-DETAILS--------------------------------
Class 0:
Packet latency average = 9.48986
	minimum = 6
	maximum = 37
Network latency average = 9.04783
	minimum = 6
	maximum = 34
Slowest packet = 14
Flit latency average = 7.50847
	minimum = 6
	maximum = 34
Slowest flit = 14
Fragmentation average = 0
	minimum = 0
	maximum = 0
Injected packet rate average = 0.00306091
	minimum = 0.00179662 (at node 10)
	maximum = 0.00826446 (at node 1)
Accepted packet rate average = 0.00306091
	minimum = 0.00179662 (at node 10)
	maximum = 0.00826446 (at node 1)
Injected flit rate average = 0.0086371
	minimum = 0.00179662 (at node 10)
	maximum = 0.0301833 (at node 15)
Accepted flit rate average= 0.0086371
	minimum = 0.00275482 (at node 18)
	maximum = 0.0262307 (at node 1)
Injected packet length average = 2.82174
Accepted packet length average = 2.82174
Total in-flight flits = 0 (0 measured)
====== Overall Traffic Statistics ======
====== Traffic class 0 ======
Packet latency average = 9.48986 (1 samples)
	minimum = 6 (1 samples)
	maximum = 37 (1 samples)
Network latency average = 9.04783 (1 samples)
	minimum = 6 (1 samples)
	maximum = 34 (1 samples)
Flit latency average = 7.50847 (1 samples)
	minimum = 6 (1 samples)
	maximum = 34 (1 samples)
Fragmentation average = 0 (1 samples)
	minimum = 0 (1 samples)
	maximum = 0 (1 samples)
Injected packet rate average = 0.00306091 (1 samples)
	minimum = 0.00179662 (1 samples)
	maximum = 0.00826446 (1 samples)
Accepted packet rate average = 0.00306091 (1 samples)
	minimum = 0.00179662 (1 samples)
	maximum = 0.00826446 (1 samples)
Injected flit rate average = 0.0086371 (1 samples)
	minimum = 0.00179662 (1 samples)
	maximum = 0.0301833 (1 samples)
Accepted flit rate average = 0.0086371 (1 samples)
	minimum = 0.00275482 (1 samples)
	maximum = 0.0262307 (1 samples)
Injected packet size average = 2.82174 (1 samples)
Accepted packet size average = 2.82174 (1 samples)
Hops average = 1 (1 samples)
----------------------------END-of-Interconnect-DETAILS-------------------------


gpgpu_simulation_time = 0 days, 0 hrs, 0 min, 4 sec (4 sec)
gpgpu_simulation_rate = 112609 (inst/sec)
gpgpu_simulation_rate = 2087 (cycle/sec)

GPGPU-Sim PTX: cudaLaunch for 0x0x4017d8 (mode=performance simulation) on stream 0
GPGPU-Sim PTX: pushing kernel '_Z7Kernel2PbS_S_S_i' to stream 0, gridDim= (63,1,1) blockDim = (512,1,1) 
kernel '_Z7Kernel2PbS_S_S_i' transfer to GPU hardware scheduler
GPGPU-Sim uArch: Shader 9 bind to kernel 2 '_Z7Kernel2PbS_S_S_i'
GPGPU-Sim uArch: CTA/core = 3, limited by: threads
GPGPU-Sim uArch: core:  9, cta: 0 initialized @(1,8349)
GPGPU-Sim uArch: Shader 10 bind to kernel 2 '_Z7Kernel2PbS_S_S_i'
GPGPU-Sim uArch: core: 10, cta: 0 initialized @(1,8349)
GPGPU-Sim uArch: Shader 11 bind to kernel 2 '_Z7Kernel2PbS_S_S_i'
GPGPU-Sim uArch: core: 11, cta: 0 initialized @(1,8349)
GPGPU-Sim uArch: Shader 12 bind to kernel 2 '_Z7Kernel2PbS_S_S_i'
GPGPU-Sim uArch: core: 12, cta: 0 initialized @(1,8349)
GPGPU-Sim uArch: Shader 13 bind to kernel 2 '_Z7Kernel2PbS_S_S_i'
GPGPU-Sim uArch: core: 13, cta: 0 initialized @(1,8349)
GPGPU-Sim uArch: Shader 14 bind to kernel 2 '_Z7Kernel2PbS_S_S_i'
GPGPU-Sim uArch: core: 14, cta: 0 initialized @(1,8349)
GPGPU-Sim uArch: Shader 0 bind to kernel 2 '_Z7Kernel2PbS_S_S_i'
GPGPU-Sim uArch: core:  0, cta: 0 initialized @(1,8349)
GPGPU-Sim uArch: Shader 1 bind to kernel 2 '_Z7Kernel2PbS_S_S_i'
GPGPU-Sim uArch: core:  1, cta: 0 initialized @(1,8349)
GPGPU-Sim uArch: Shader 2 bind to kernel 2 '_Z7Kernel2PbS_S_S_i'
GPGPU-Sim uArch: core:  2, cta: 0 initialized @(1,8349)
GPGPU-Sim uArch: Shader 3 bind to kernel 2 '_Z7Kernel2PbS_S_S_i'
GPGPU-Sim uArch: core:  3, cta: 0 initialized @(1,8349)
GPGPU-Sim uArch: Shader 4 bind to kernel 2 '_Z7Kernel2PbS_S_S_i'
GPGPU-Sim uArch: core:  4, cta: 0 initialized @(1,8349)
GPGPU-Sim uArch: Shader 5 bind to kernel 2 '_Z7Kernel2PbS_S_S_i'
GPGPU-Sim uArch: core:  5, cta: 0 initialized @(1,8349)
GPGPU-Sim uArch: Shader 6 bind to kernel 2 '_Z7Kernel2PbS_S_S_i'
GPGPU-Sim uArch: core:  6, cta: 0 initialized @(1,8349)
GPGPU-Sim uArch: Shader 7 bind to kernel 2 '_Z7Kernel2PbS_S_S_i'
GPGPU-Sim uArch: core:  7, cta: 0 initialized @(1,8349)
GPGPU-Sim uArch: Shader 8 bind to kernel 2 '_Z7Kernel2PbS_S_S_i'
GPGPU-Sim uArch: core:  8, cta: 0 initialized @(1,8349)
GPGPU-Sim uArch: core:  9, cta: 1 initialized @(2,8349)
GPGPU-Sim uArch: core: 10, cta: 1 initialized @(2,8349)
GPGPU-Sim uArch: core: 11, cta: 1 initialized @(2,8349)
GPGPU-Sim uArch: core: 12, cta: 1 initialized @(2,8349)
GPGPU-Sim uArch: core: 13, cta: 1 initialized @(2,8349)
GPGPU-Sim uArch: core: 14, cta: 1 initialized @(2,8349)
GPGPU-Sim uArch: core:  0, cta: 1 initialized @(2,8349)
GPGPU-Sim uArch: core:  1, cta: 1 initialized @(2,8349)
GPGPU-Sim uArch: core:  2, cta: 1 initialized @(2,8349)
GPGPU-Sim uArch: core:  3, cta: 1 initialized @(2,8349)
GPGPU-Sim uArch: core:  4, cta: 1 initialized @(2,8349)
GPGPU-Sim uArch: core:  5, cta: 1 initialized @(2,8349)
GPGPU-Sim uArch: core:  6, cta: 1 initialized @(2,8349)
GPGPU-Sim uArch: core:  7, cta: 1 initialized @(2,8349)
GPGPU-Sim uArch: core:  8, cta: 1 initialized @(2,8349)
GPGPU-Sim uArch: core:  9, cta: 2 initialized @(3,8349)
GPGPU-Sim uArch: core: 10, cta: 2 initialized @(3,8349)
GPGPU-Sim uArch: core: 11, cta: 2 initialized @(3,8349)
GPGPU-Sim uArch: core: 12, cta: 2 initialized @(3,8349)
GPGPU-Sim uArch: core: 13, cta: 2 initialized @(3,8349)
GPGPU-Sim uArch: core: 14, cta: 2 initialized @(3,8349)
GPGPU-Sim uArch: core:  0, cta: 2 initialized @(3,8349)
GPGPU-Sim uArch: core:  1, cta: 2 initialized @(3,8349)
GPGPU-Sim uArch: core:  2, cta: 2 initialized @(3,8349)
GPGPU-Sim uArch: core:  3, cta: 2 initialized @(3,8349)
GPGPU-Sim uArch: core:  4, cta: 2 initialized @(3,8349)
GPGPU-Sim uArch: core:  5, cta: 2 initialized @(3,8349)
GPGPU-Sim uArch: core:  6, cta: 2 initialized @(3,8349)
GPGPU-Sim uArch: core:  7, cta: 2 initialized @(3,8349)
GPGPU-Sim uArch: core:  8, cta: 2 initialized @(3,8349)
GPGPU-Sim PTX: 500000 instructions simulated : ctaid=(25,0,0) tid=(9,0,0)
GPGPU-Sim PTX: 600000 instructions simulated : ctaid=(28,0,0) tid=(105,0,0)
GPGPU-Sim uArch: cycles simulated: 8849  inst.: 637604 (ipc=374.3) sim_rate=159401 (inst/sec) elapsed = 0:0:00:04 / Tue Apr 16 16:54:35 2019
GPGPU-Sim PTX: 700000 instructions simulated : ctaid=(9,0,0) tid=(9,0,0)
GPGPU-Sim PTX: 800000 instructions simulated : ctaid=(4,0,0) tid=(243,0,0)
GPGPU-Sim uArch: Shader 2 finished CTA #1 (956,8349), 2 CTAs running
GPGPU-Sim uArch: core:  2, cta: 1 initialized @(957,8349)
GPGPU-Sim uArch: Shader 10 finished CTA #1 (958,8349), 2 CTAs running
GPGPU-Sim uArch: Shader 10 finished CTA #2 (958,8349), 1 CTAs running
GPGPU-Sim uArch: core: 10, cta: 1 initialized @(959,8349)
GPGPU-Sim uArch: core: 10, cta: 2 initialized @(960,8349)
GPGPU-Sim uArch: Shader 5 finished CTA #2 (961,8349), 2 CTAs running
GPGPU-Sim uArch: core:  5, cta: 2 initialized @(962,8349)
GPGPU-Sim uArch: Shader 4 finished CTA #2 (967,8349), 2 CTAs running
GPGPU-Sim uArch: Shader 4 finished CTA #0 (967,8349), 1 CTAs running
GPGPU-Sim uArch: core:  4, cta: 0 initialized @(968,8349)
GPGPU-Sim uArch: core:  4, cta: 2 initialized @(969,8349)
GPGPU-Sim uArch: Shader 2 finished CTA #2 (973,8349), 2 CTAs running
GPGPU-Sim uArch: Shader 6 finished CTA #1 (973,8349), 2 CTAs running
GPGPU-Sim uArch: Shader 6 finished CTA #2 (973,8349), 1 CTAs running
GPGPU-Sim uArch: core:  6, cta: 1 initialized @(974,8349)
GPGPU-Sim uArch: core:  2, cta: 2 initialized @(974,8349)
GPGPU-Sim uArch: core:  6, cta: 2 initialized @(975,8349)
GPGPU-Sim uArch: Shader 5 finished CTA #1 (978,8349), 2 CTAs running
GPGPU-Sim uArch: core:  5, cta: 1 initialized @(979,8349)
GPGPU-Sim uArch: Shader 8 finished CTA #1 (979,8349), 2 CTAs running
GPGPU-Sim uArch: core:  8, cta: 1 initialized @(980,8349)
GPGPU-Sim uArch: Shader 13 finished CTA #2 (986,8349), 2 CTAs running
GPGPU-Sim uArch: core: 13, cta: 2 initialized @(987,8349)
GPGPU-Sim uArch: Shader 12 finished CTA #2 (992,8349), 2 CTAs running
GPGPU-Sim uArch: core: 12, cta: 2 initialized @(993,8349)
GPGPU-Sim uArch: Shader 8 finished CTA #0 (996,8349), 2 CTAs running
GPGPU-Sim uArch: core:  8, cta: 0 initialized @(997,8349)
GPGPU-Sim uArch: Shader 1 finished CTA #2 (997,8349), 2 CTAs running
GPGPU-Sim uArch: Shader 1 finished CTA #0 (997,8349), 1 CTAs running
GPGPU-Sim uArch: core:  1, cta: 0 initialized @(998,8349)
GPGPU-Sim uArch: core:  1, cta: 2 initialized @(999,8349)
GPGPU-Sim uArch: Shader 3 finished CTA #2 (999,8349), 2 CTAs running
GPGPU-Sim uArch: core:  3, cta: 2 initialized @(1000,8349)
GPGPU-Sim uArch: cycles simulated: 9349  inst.: 773999 (ipc=323.6) sim_rate=154799 (inst/sec) elapsed = 0:0:00:05 / Tue Apr 16 16:54:36 2019
GPGPU-Sim uArch: Shader 13 finished CTA #1 (1003,8349), 2 CTAs running
GPGPU-Sim uArch: core: 13, cta: 1 initialized @(1004,8349)
GPGPU-Sim uArch: Shader 7 finished CTA #2 (1009,8349), 2 CTAs running
GPGPU-Sim uArch: Shader 7 finished CTA #0 (1009,8349), 1 CTAs running
GPGPU-Sim uArch: Shader 12 finished CTA #0 (1009,8349), 2 CTAs running
GPGPU-Sim uArch: Shader 1 finished CTA #1 (1014,8349), 2 CTAs running
GPGPU-Sim uArch: Shader 9 finished CTA #2 (1015,8349), 2 CTAs running
GPGPU-Sim uArch: Shader 7 finished CTA #1 (1016,8349), 0 CTAs running
GPGPU-Sim uArch: Shader 7 empty (release kernel 2 '_Z7Kernel2PbS_S_S_i').
GPGPU-Sim uArch: Shader 3 finished CTA #0 (1019,8349), 2 CTAs running
GPGPU-Sim uArch: Shader 3 finished CTA #1 (1019,8349), 1 CTAs running
GPGPU-Sim uArch: Shader 9 finished CTA #0 (1021,8349), 1 CTAs running
GPGPU-Sim uArch: Shader 11 finished CTA #0 (1021,8349), 2 CTAs running
GPGPU-Sim uArch: Shader 9 finished CTA #1 (1022,8349), 0 CTAs running
GPGPU-Sim uArch: Shader 9 empty (release kernel 2 '_Z7Kernel2PbS_S_S_i').
GPGPU-Sim uArch: Shader 11 finished CTA #1 (1024,8349), 1 CTAs running
GPGPU-Sim uArch: Shader 11 finished CTA #2 (1028,8349), 0 CTAs running
GPGPU-Sim uArch: Shader 11 empty (release kernel 2 '_Z7Kernel2PbS_S_S_i').
GPGPU-Sim uArch: Shader 14 finished CTA #1 (1033,8349), 2 CTAs running
GPGPU-Sim uArch: Shader 14 finished CTA #2 (1036,8349), 1 CTAs running
GPGPU-Sim uArch: Shader 0 finished CTA #0 (1039,8349), 2 CTAs running
GPGPU-Sim uArch: Shader 14 finished CTA #0 (1040,8349), 0 CTAs running
GPGPU-Sim uArch: Shader 14 empty (release kernel 2 '_Z7Kernel2PbS_S_S_i').
GPGPU-Sim uArch: Shader 0 finished CTA #1 (1042,8349), 1 CTAs running
GPGPU-Sim uArch: Shader 0 finished CTA #2 (1046,8349), 0 CTAs running
GPGPU-Sim uArch: Shader 0 empty (release kernel 2 '_Z7Kernel2PbS_S_S_i').
GPGPU-Sim PTX: 900000 instructions simulated : ctaid=(56,0,0) tid=(468,0,0)
GPGPU-Sim uArch: Shader 2 finished CTA #0 (1178,8349), 2 CTAs running
GPGPU-Sim uArch: Shader 4 finished CTA #1 (1194,8349), 2 CTAs running
GPGPU-Sim uArch: Shader 12 finished CTA #1 (1196,8349), 1 CTAs running
GPGPU-Sim uArch: Shader 10 finished CTA #0 (1200,8349), 2 CTAs running
GPGPU-Sim uArch: Shader 8 finished CTA #2 (1202,8349), 2 CTAs running
GPGPU-Sim uArch: Shader 6 finished CTA #0 (1204,8349), 2 CTAs running
GPGPU-Sim uArch: Shader 5 finished CTA #0 (1206,8349), 2 CTAs running
GPGPU-Sim uArch: Shader 13 finished CTA #0 (1209,8349), 2 CTAs running
GPGPU-Sim uArch: Shader 12 finished CTA #2 (1397,8349), 0 CTAs running
GPGPU-Sim uArch: Shader 12 empty (release kernel 2 '_Z7Kernel2PbS_S_S_i').
GPGPU-Sim uArch: Shader 5 finished CTA #2 (1399,8349), 1 CTAs running
GPGPU-Sim uArch: Shader 3 finished CTA #2 (1408,8349), 0 CTAs running
GPGPU-Sim uArch: Shader 3 empty (release kernel 2 '_Z7Kernel2PbS_S_S_i').
GPGPU-Sim uArch: Shader 4 finished CTA #0 (1410,8349), 1 CTAs running
GPGPU-Sim uArch: Shader 10 finished CTA #1 (1422,8349), 1 CTAs running
GPGPU-Sim uArch: Shader 13 finished CTA #2 (1428,8349), 1 CTAs running
GPGPU-Sim uArch: Shader 2 finished CTA #1 (1437,8349), 1 CTAs running
GPGPU-Sim uArch: Shader 1 finished CTA #0 (1456,8349), 1 CTAs running
GPGPU-Sim uArch: Shader 6 finished CTA #1 (1456,8349), 1 CTAs running
GPGPU-Sim uArch: Shader 13 finished CTA #1 (1459,8349), 0 CTAs running
GPGPU-Sim uArch: Shader 13 empty (release kernel 2 '_Z7Kernel2PbS_S_S_i').
GPGPU-Sim uArch: Shader 10 finished CTA #2 (1475,8349), 0 CTAs running
GPGPU-Sim uArch: Shader 10 empty (release kernel 2 '_Z7Kernel2PbS_S_S_i').
GPGPU-Sim uArch: Shader 5 finished CTA #1 (1477,8349), 0 CTAs running
GPGPU-Sim uArch: Shader 5 empty (release kernel 2 '_Z7Kernel2PbS_S_S_i').
GPGPU-Sim uArch: Shader 8 finished CTA #1 (1477,8349), 1 CTAs running
GPGPU-Sim uArch: Shader 2 finished CTA #2 (1478,8349), 0 CTAs running
GPGPU-Sim uArch: Shader 2 empty (release kernel 2 '_Z7Kernel2PbS_S_S_i').
GPGPU-Sim uArch: Shader 6 finished CTA #2 (1484,8349), 0 CTAs running
GPGPU-Sim uArch: Shader 6 empty (release kernel 2 '_Z7Kernel2PbS_S_S_i').
GPGPU-Sim uArch: Shader 8 finished CTA #0 (1496,8349), 0 CTAs running
GPGPU-Sim uArch: Shader 8 empty (release kernel 2 '_Z7Kernel2PbS_S_S_i').
GPGPU-Sim uArch: Shader 1 finished CTA #2 (1506,8349), 0 CTAs running
GPGPU-Sim uArch: Shader 1 empty (release kernel 2 '_Z7Kernel2PbS_S_S_i').
GPGPU-Sim uArch: Shader 4 finished CTA #2 (1567,8349), 0 CTAs running
GPGPU-Sim uArch: Shader 4 empty (release kernel 2 '_Z7Kernel2PbS_S_S_i').
GPGPU-Sim uArch: GPU detected kernel '_Z7Kernel2PbS_S_S_i' finished on shader 4.
kernel_name = _Z7Kernel2PbS_S_S_i 
kernel_launch_uid = 2 
gpu_sim_cycle = 1568
gpu_sim_insn = 450228
gpu_ipc =     287.1352
gpu_tot_sim_cycle = 9917
gpu_tot_sim_insn = 900664
gpu_tot_ipc =      90.8202
gpu_tot_issued_cta = 0
gpu_stall_dramfull = 424
gpu_stall_icnt2sh    = 487
gpu_total_sim_rate=180132

========= Core cache stats =========
L1I_cache:
	L1I_total_cache_accesses = 20272
	L1I_total_cache_misses = 1901
	L1I_total_cache_miss_rate = 0.0938
	L1I_total_cache_pending_hits = 0
	L1I_total_cache_reservation_fails = 9314
L1D_cache:
	L1D_cache_core[0]: Access = 144, Miss = 36, Miss_rate = 0.250, Pending_hits = 108, Reservation_fails = 0
	L1D_cache_core[1]: Access = 252, Miss = 83, Miss_rate = 0.329, Pending_hits = 108, Reservation_fails = 217
	L1D_cache_core[2]: Access = 168, Miss = 46, Miss_rate = 0.274, Pending_hits = 120, Reservation_fails = 292
	L1D_cache_core[3]: Access = 144, Miss = 36, Miss_rate = 0.250, Pending_hits = 108, Reservation_fails = 211
	L1D_cache_core[4]: Access = 168, Miss = 46, Miss_rate = 0.274, Pending_hits = 120, Reservation_fails = 344
	L1D_cache_core[5]: Access = 164, Miss = 43, Miss_rate = 0.262, Pending_hits = 120, Reservation_fails = 262
	L1D_cache_core[6]: Access = 172, Miss = 49, Miss_rate = 0.285, Pending_hits = 120, Reservation_fails = 295
	L1D_cache_core[7]: Access = 112, Miss = 28, Miss_rate = 0.250, Pending_hits = 84, Reservation_fails = 218
	L1D_cache_core[8]: Access = 152, Miss = 47, Miss_rate = 0.309, Pending_hits = 102, Reservation_fails = 284
	L1D_cache_core[9]: Access = 112, Miss = 28, Miss_rate = 0.250, Pending_hits = 84, Reservation_fails = 217
	L1D_cache_core[10]: Access = 132, Miss = 35, Miss_rate = 0.265, Pending_hits = 96, Reservation_fails = 207
	L1D_cache_core[11]: Access = 112, Miss = 28, Miss_rate = 0.250, Pending_hits = 84, Reservation_fails = 184
	L1D_cache_core[12]: Access = 116, Miss = 31, Miss_rate = 0.267, Pending_hits = 84, Reservation_fails = 359
	L1D_cache_core[13]: Access = 124, Miss = 33, Miss_rate = 0.266, Pending_hits = 90, Reservation_fails = 103
	L1D_cache_core[14]: Access = 96, Miss = 24, Miss_rate = 0.250, Pending_hits = 72, Reservation_fails = 126
	L1D_total_cache_accesses = 2168
	L1D_total_cache_misses = 593
	L1D_total_cache_miss_rate = 0.2735
	L1D_total_cache_pending_hits = 1500
	L1D_total_cache_reservation_fails = 3319
	L1D_cache_data_port_util = 0.001
	L1D_cache_fill_port_util = 0.010
L1C_cache:
	L1C_total_cache_accesses = 4094
	L1C_total_cache_misses = 480
	L1C_total_cache_miss_rate = 0.1172
	L1C_total_cache_pending_hits = 0
	L1C_total_cache_reservation_fails = 3411
L1T_cache:
	L1T_total_cache_accesses = 0
	L1T_total_cache_misses = 0
	L1T_total_cache_pending_hits = 0
	L1T_total_cache_reservation_fails = 0

Total_core_cache_stats:
	Total_core_cache_stats_breakdown[GLOBAL_ACC_R][HIT] = 60
	Total_core_cache_stats_breakdown[GLOBAL_ACC_R][HIT_RESERVED] = 1500
	Total_core_cache_stats_breakdown[GLOBAL_ACC_R][MISS] = 517
	Total_core_cache_stats_breakdown[GLOBAL_ACC_R][RESERVATION_FAIL] = 2578
	Total_core_cache_stats_breakdown[CONST_ACC_R][HIT] = 3614
	Total_core_cache_stats_breakdown[CONST_ACC_R][MISS] = 480
	Total_core_cache_stats_breakdown[CONST_ACC_R][RESERVATION_FAIL] = 3411
	Total_core_cache_stats_breakdown[GLOBAL_ACC_W][HIT] = 15
	Total_core_cache_stats_breakdown[GLOBAL_ACC_W][MISS] = 76
	Total_core_cache_stats_breakdown[GLOBAL_ACC_W][RESERVATION_FAIL] = 741
	Total_core_cache_stats_breakdown[INST_ACC_R][HIT] = 18371
	Total_core_cache_stats_breakdown[INST_ACC_R][MISS] = 1901
	Total_core_cache_stats_breakdown[INST_ACC_R][RESERVATION_FAIL] = 9314
Shader 0 warp_id issue ditsribution:
warp_id:
0, 1, 2, 3, 4, 5, 6, 7, 8, 9, 10, 11, 12, 13, 14, 15, 16, 17, 18, 19, 20, 21, 22, 23, 24, 25, 26, 27, 28, 29, 30, 31, 32, 33, 34, 35, 36, 37, 38, 39, 40, 41, 42, 43, 44, 45, 46, 47, 
distro:
45, 45, 45, 45, 45, 45, 45, 45, 45, 45, 45, 45, 45, 45, 45, 45, 45, 45, 45, 45, 45, 45, 45, 45, 45, 45, 45, 45, 45, 45, 45, 45, 45, 45, 45, 45, 45, 45, 45, 45, 45, 45, 45, 45, 45, 45, 45, 45, 
gpgpu_n_tot_thrd_icount = 983328
gpgpu_n_tot_w_icount = 30729
gpgpu_n_stall_shd_mem = 6730
gpgpu_n_mem_read_local = 0
gpgpu_n_mem_write_local = 0
gpgpu_n_mem_read_global = 517
gpgpu_n_mem_write_global = 91
gpgpu_n_mem_texture = 0
gpgpu_n_mem_const = 15
gpgpu_n_load_insn  = 64077
gpgpu_n_store_insn = 91
gpgpu_n_shmem_insn = 0
gpgpu_n_tex_insn = 0
gpgpu_n_const_mem_insn = 0
gpgpu_n_param_mem_insn = 128590
gpgpu_n_shmem_bkconflict = 0
gpgpu_n_cache_bkconflict = 0
gpgpu_n_intrawarp_mshr_merge = 0
gpgpu_n_cmem_portconflict = 3411
gpgpu_stall_shd_mem[c_mem][bk_conf] = 3411
gpgpu_stall_shd_mem[c_mem][mshr_rc] = 0
gpgpu_stall_shd_mem[c_mem][icnt_rc] = 0
gpgpu_stall_shd_mem[c_mem][data_port_stall] = 0
gpgpu_stall_shd_mem[t_mem][mshr_rc] = 0
gpgpu_stall_shd_mem[t_mem][icnt_rc] = 0
gpgpu_stall_shd_mem[t_mem][data_port_stall] = 0
gpgpu_stall_shd_mem[s_mem][bk_conf] = 0
gpgpu_stall_shd_mem[gl_mem][bk_conf] = 0
gpgpu_stall_shd_mem[gl_mem][coal_stall] = 3319
gpgpu_stall_shd_mem[gl_mem][data_port_stall] = 0
gpgpu_stall_shd_mem[g_mem_ld][mshr_rc] = 0
gpgpu_stall_shd_mem[g_mem_ld][icnt_rc] = 0
gpgpu_stall_shd_mem[g_mem_ld][wb_icnt_rc] = 0
gpgpu_stall_shd_mem[g_mem_ld][wb_rsrv_fail] = 0
gpgpu_stall_shd_mem[g_mem_st][mshr_rc] = 0
gpgpu_stall_shd_mem[g_mem_st][icnt_rc] = 0
gpgpu_stall_shd_mem[g_mem_st][wb_icnt_rc] = 0
gpgpu_stall_shd_mem[g_mem_st][wb_rsrv_fail] = 0
gpgpu_stall_shd_mem[l_mem_ld][mshr_rc] = 0
gpgpu_stall_shd_mem[l_mem_ld][icnt_rc] = 0
gpgpu_stall_shd_mem[l_mem_ld][wb_icnt_rc] = 0
gpgpu_stall_shd_mem[l_mem_ld][wb_rsrv_fail] = 0
gpgpu_stall_shd_mem[l_mem_st][mshr_rc] = 0
gpgpu_stall_shd_mem[l_mem_st][icnt_rc] = 0
gpgpu_stall_shd_mem[l_mem_ld][wb_icnt_rc] = 0
gpgpu_stall_shd_mem[l_mem_ld][wb_rsrv_fail] = 0
gpu_reg_bank_conflict_stalls = 0
Warp Occupancy Distribution:
Stall:12219	W0_Idle:28705	W0_Scoreboard:31859	W1:601	W2:0	W3:0	W4:0	W5:0	W6:0	W7:0	W8:0	W9:0	W10:0	W11:0	W12:0	W13:0	W14:0	W15:0	W16:0	W17:0	W18:0	W19:0	W20:0	W21:0	W22:0	W23:0	W24:0	W25:0	W26:0	W27:0	W28:0	W29:0	W30:0	W31:0	W32:30128
traffic_breakdown_coretomem[CONST_ACC_R] = 120 {8:15,}
traffic_breakdown_coretomem[GLOBAL_ACC_R] = 4136 {8:517,}
traffic_breakdown_coretomem[GLOBAL_ACC_W] = 3640 {40:91,}
traffic_breakdown_coretomem[INST_ACC_R] = 496 {8:62,}
traffic_breakdown_memtocore[CONST_ACC_R] = 1080 {72:15,}
traffic_breakdown_memtocore[GLOBAL_ACC_R] = 70312 {136:517,}
traffic_breakdown_memtocore[GLOBAL_ACC_W] = 728 {8:91,}
traffic_breakdown_memtocore[INST_ACC_R] = 8432 {136:62,}
maxmrqlatency = 58 
maxdqlatency = 0 
maxmflatency = 380 
averagemflatency = 257 
max_icnt2mem_latency = 36 
max_icnt2sh_latency = 9916 
mrq_lat_table:382 	32 	56 	47 	26 	30 	0 	0 	0 	0 	0 	0 	0 	0 	0 	0 	0 	0 	0 	0 	0 	0 	0 	0 	0 	0 	0 	0 	0 	0 	0 	0 	
dq_lat_table:0 	0 	0 	0 	0 	0 	0 	0 	0 	0 	0 	0 	0 	0 	0 	0 	0 	0 	0 	0 	0 	0 	0 	0 	0 	0 	0 	0 	0 	0 	0 	0 	
mf_lat_table:0 	0 	0 	0 	0 	0 	0 	109 	514 	0 	0 	0 	0 	0 	0 	0 	0 	0 	0 	0 	0 	0 	0 	0 	0 	0 	0 	0 	0 	0 	0 	0 	
icnt2mem_lat_table:0 	0 	0 	665 	15 	5 	0 	0 	0 	0 	0 	0 	0 	0 	0 	0 	0 	0 	0 	0 	0 	0 	0 	0 	
icnt2sh_lat_table:0 	0 	0 	334 	179 	19 	0 	0 	0 	0 	1 	6 	22 	62 	0 	0 	0 	0 	0 	0 	0 	0 	0 	0 	
mf_lat_pw_table:0 	0 	0 	0 	0 	0 	0 	11 	7 	0 	0 	0 	0 	0 	0 	0 	0 	0 	0 	0 	0 	0 	0 	0 	0 	0 	0 	0 	0 	0 	0 	0 	
maximum concurrent accesses to same row:
dram[0]:         1         0         0         0         0         0         0         0         0         0         0         0         0         0         0         0 
dram[1]:         0         0         0         0         0         0         0         0         0         0         0         0         0         0         0         0 
dram[2]:         0         0         0         0         0         1         0         0         0         0         0         0         0         0         0         0 
dram[3]:         0         0         0         0         0         0         0         0         0         0         0         0         0         0         0         0 
dram[4]:         0         0         0         0         0         0         0         0         0         0         0         0         0         0         0         0 
dram[5]:         0         0         0         0         0         0         0         0         0         0         0         0         0         0         0         0 
maximum service time to same row:
dram[0]:       634         0       949       951      1232      1697      2725      5413         0      7521      8318         0         0         0      1872         0 
dram[1]:      1194         0       915       938      1029      1693      3897         0         0         0      3024         0         0         0         0         0 
dram[2]:       385         0       938       954      1066      1550         0      3494      7127         0         0         0         0      1160         0         0 
dram[3]:         0         0       916       935      1650      1660         0      3091         0      6596         0      5807         0         0         0         0 
dram[4]:         0         0       943       963      1659      1669         0      2419      3829         0         0         0         0         0         0         0 
dram[5]:         0         0       925       919      1688      1660         0      7588         0         0      7924      3426         0         0         0         0 
average row accesses per activate:
dram[0]:  1.000000      -nan 14.000000 14.000000 28.000000 31.000000  4.000000  2.000000      -nan  2.000000  2.000000      -nan      -nan      -nan  1.000000      -nan 
dram[1]:  2.000000      -nan 14.000000 14.000000 29.000000 28.000000  4.000000      -nan      -nan      -nan  4.000000      -nan      -nan      -nan      -nan      -nan 
dram[2]:  2.000000      -nan 14.000000 14.000000 29.000000 15.000000      -nan  3.000000  2.000000      -nan      -nan      -nan      -nan  5.000000      -nan      -nan 
dram[3]:      -nan      -nan 14.000000 16.000000 30.000000 26.000000      -nan  2.000000      -nan  2.000000      -nan  2.000000      -nan      -nan      -nan      -nan 
dram[4]:      -nan      -nan 14.000000 16.000000 31.000000 27.000000      -nan  1.000000  2.000000      -nan      -nan      -nan      -nan      -nan      -nan      -nan 
dram[5]:      -nan      -nan 14.000000 16.000000 30.000000 28.000000      -nan  1.000000      -nan      -nan  2.000000  4.000000      -nan      -nan      -nan      -nan 
average row locality = 573/48 = 11.937500
number of total memory accesses made:
dram[0]:         0         0         0         0         0         0         0         0         0         0         0         0         0         0         0         0 
dram[1]:         0         0         0         0         0         0         0         0         0         0         0         0         0         0         0         0 
dram[2]:         0         0         0         0         0         0         0         0         0         0         0         0         0         0         0         0 
dram[3]:         0         0         0         0         0         0         0         0         0         0         0         0         0         0         0         0 
dram[4]:         0         0         0         0         0         0         0         0         0         0         0         0         0         0         0         0 
dram[5]:         0         0         0         0         0         0         0         0         0         0         0         0         0         0         0         0 
total accesses: 0
min_bank_accesses = 0!
min_chip_accesses = 0!
number of total read accesses:
dram[0]:         3         0        14        14        28        29         3         1         0         1         1         0         0         0         1         0 
[...]
traffic_breakdown_coretomem[GLOBAL_ACC_R] = 7021000 {8:877625,}
traffic_breakdown_coretomem[GLOBAL_ACC_W] = 9426304 {40:235338,72:34,136:76,}
traffic_breakdown_coretomem[INST_ACC_R] = 720 {8:90,}
traffic_breakdown_memtocore[CONST_ACC_R] = 1080 {72:15,}
traffic_breakdown_memtocore[GLOBAL_ACC_R] = 119357000 {136:877625,}
traffic_breakdown_memtocore[GLOBAL_ACC_W] = 1883584 {8:235448,}
traffic_breakdown_memtocore[INST_ACC_R] = 12240 {136:90,}
maxmrqlatency = 169 
maxdqlatency = 0 
maxmflatency = 716 
averagemflatency = 198 
max_icnt2mem_latency = 586 
max_icnt2sh_latency = 1365997 
mrq_lat_table:47621 	2928 	743 	3008 	10105 	618 	151 	35 	0 	0 	0 	0 	0 	0 	0 	0 	0 	0 	0 	0 	0 	0 	0 	0 	0 	0 	0 	0 	0 	0 	0 	0 	
dq_lat_table:0 	0 	0 	0 	0 	0 	0 	0 	0 	0 	0 	0 	0 	0 	0 	0 	0 	0 	0 	0 	0 	0 	0 	0 	0 	0 	0 	0 	0 	0 	0 	0 	
mf_lat_table:0 	0 	0 	0 	0 	0 	0 	973016 	139622 	450 	0 	0 	0 	0 	0 	0 	0 	0 	0 	0 	0 	0 	0 	0 	0 	0 	0 	0 	0 	0 	0 	0 	
icnt2mem_lat_table:0 	0 	0 	592717 	414495 	93102 	2711 	7207 	2932 	14 	0 	0 	0 	0 	0 	0 	0 	0 	0 	0 	0 	0 	0 	0 	
icnt2sh_lat_table:0 	0 	0 	132272 	360298 	330987 	53686 	397 	0 	0 	1 	6 	22 	414 	5010 	11634 	29393 	57690 	43139 	78783 	9356 	0 	0 	0 	
mf_lat_pw_table:0 	0 	0 	0 	0 	0 	0 	2733 	40 	0 	0 	0 	0 	0 	0 	0 	0 	0 	0 	0 	0 	0 	0 	0 	0 	0 	0 	0 	0 	0 	0 	0 	
maximum concurrent accesses to same row:
dram[0]:        12        16        43        36        32        32        29        29        46        23        22        32        18        23        20        15 
dram[1]:        18        17        51        45        31        31        28        32        46        31        29        27        21        24        21        16 
dram[2]:        16        16        47        31        31        29        27        26        38        52        38        31        20        16        23        18 
dram[3]:        16        16        44        56        34        29        24        20        44        53        46        41        21        24        18        15 
dram[4]:        22        17        32        43        33        28        26        26        24        54        47        50        20        14        19        16 
dram[5]:        17        18        47        58        33        28        30        29        42        35        18        52        22        22        15        14 
maximum service time to same row:
dram[0]:     90145     86697     84867     67690     25997     40191     39272     30386     53638     29759     32265     38083     58179     63350     55469     60259 
dram[1]:     95969     93207     83866     32229     40711     72858     74129     27295     52731    124047     48032     35034     42322    119939     83676     50048 
dram[2]:     97778    106208     39655     39225     30043     41603     74694     30831     24321     51034     27018     34322     43672     49026     67995     31586 
dram[3]:     49175     98984     67688     85063     27185     42747     35969     49157     47547     33212     32515     52210     53403     46691     67267     76828 
dram[4]:     86662     98981     50222     64516     37517     50628     26110     65988     42200     30992     32888     53579     60494     44953     36590     49597 
dram[5]:     85132     83549     75681     85053     53007     64748     39681     43149     42114     31524     38622     33245     63546     45516     76999     49761 
average row accesses per activate:
dram[0]:  2.322449  2.322115  2.187713  2.035211  2.204918  2.249110  2.401316  2.219672  2.240175  2.264484  2.305164  2.195312  2.300366  2.326446  2.675258  2.299517 
dram[1]:  2.281938  2.563758  2.270463  2.127820  2.284314  2.171756  2.156522  2.138037  2.215385  2.317901  2.187234  2.110610  2.068345  2.230769  2.477833  2.204348 
dram[2]:  2.280952  2.389380  2.162630  2.009524  2.334471  2.266447  2.271565  2.130682  2.119718  2.184932  2.152125  2.317352  2.172839  2.404000  2.681564  2.296943 
dram[3]:  2.680851  2.361607  2.371795  2.484733  2.257576  2.281250  2.087464  2.270627  2.227882  2.259346  2.146635  2.227488  2.132530  2.324000  2.336634  2.475000 
dram[4]:  2.504425  2.315534  2.067524  2.231618  2.204204  2.125926  2.238372  2.273927  2.166307  2.174118  2.259091  2.417722  2.452830  2.049809  2.412556  2.435644 
dram[5]:  2.423810  2.239583  2.205298  2.482609  2.450355  2.196491  2.349398  2.080495  2.536000  2.188442  2.113208  2.199507  2.205776  2.392157  2.429907  2.310345 
average row locality = 65209/28885 = 2.257539
number of total memory accesses made:
dram[0]:         0         0         0         0         0         0         0         0         0         0         0         0         0         0         0         0 
dram[1]:         0         0         0         0         0         0         0         0         0         0         0         0         0         0         0         0 
dram[2]:         0         0         0         0         0         0         0         0         0         0         0         0         0         0         0         0 
dram[3]:         0         0         0         0         0         0         0         0         0         0         0         0         0         0         0         0 
dram[4]:         0         0         0         0         0         0         0         0         0         0         0         0         0         0         0         0 
dram[5]:         0         0         0         0         0         0         0         0         0         0         0         0         0         0         0         0 
total accesses: 0
min_bank_accesses = 0!
min_chip_accesses = 0!
number of total read accesses:
dram[0]:       569       483       556       495       649       533       615       574       786       653       718       621       585       534       519       476 
dram[1]:       518       382       535       480       566       473       632       594       752       564       751       692       545       464       503       507 
dram[2]:       479       540       535       563       552       590       603       627       672       734       706       746       492       580       480       526 
dram[3]:       378       529       453       522       508       593       614       579       620       736       667       694       506       573       472       495 
dram[4]:       566       477       568       505       595       504       650       574       767       679       736       688       608       520       538       492 
dram[5]:       509       430       568       456       560       528       645       567       701       649       755       651       568       474       520       469 
total reads: 55205
bank skew: 786/378 = 2.08
chip skew: 9467/8939 = 1.06
number of total write accesses:
dram[0]:         0         0        85        83       158        99       115       103       240       246       264       222        43        29         0         0 
dram[1]:         0         0       103        86       133        96       112       103       256       187       277       243        30        29         0         0 
dram[2]:         0         0        90        70       132        99       108       123       231       223       256       269        36        21         0         0 
dram[3]:         0         0       102       129        88       137       102       109       211       231       226       246        25         8         0         0 
dram[4]:         0         0        75       102       139        70       120       115       236       245       258       267        42        15         0         0 
dram[5]:         0         0        98       115       131        98       135       105       250       222       253       242        43        14         0         0 
total reads: 10004
min_bank_accesses = 0!
chip skew: 1706/1614 = 1.06
average mf latency per bank:
dram[0]:       1513      1779      1493      1562      4986      6360      9129      9805      1779      1925      1782      2079      1681      1855      1772      1863
dram[1]:       1695      2278      1403      1637      5577      7987      9086      9690      1789      2302      1719      1868      1805      2043      1774      1807
dram[2]:       1784      1624      1473      1486      5918      6715      9422      9026      2008      1884      1816      1712      1893      3436      1881      1753
dram[3]:       2164      1667      1641      1433      6709      6307      9294      9858      2121      1864      1977      1845      1894      1745      1878      1765
dram[4]:       1562      1796      1493      1515      5502      8115      8664      9915      1797      1946      1763      1838      1610      1845      1695      1871
dram[5]:       1727      2055      1383      1648      5933      7485      8704     10115      1892      2119      1809      2034      1702      2031      1716      1906
maximum mf latency per bank:
dram[0]:        485       490       604       593       499       581       570       595       553       461       581       473       456       481       502       503
dram[1]:        470       486       607       603       671       547       575       586       435       464       471       467       445       437       526       460
dram[2]:        484       477       577       643       703       716       574       574       523       508       568       488       439       703       489       477
dram[3]:        458       452       671       570       590       671       441       452       482       474       511       453       428       474       478       460
dram[4]:        446       540       693       677       526       493       579       579       481       474       527       519       463       465       470       552
dram[5]:        450       464       490       524       527       467       496       469       529       507       477       462       456       446       513       528

Number of Memory Banks Accessed per Memory Operation per Warp (from 0):
0	0	0	0	0	0	0	0	0	0	0	0	0	0	0	0	0	0	0	0	0	0	0	0	0	0	0	0	0	0	0	0	0	0	0	0	0	0	0	0	0	0	0	0	0	0	0	0	0	0	0	0	0	0	0	0	0	0	0	0	0	0	0	0	0	0	0	0	0	0	0	0	0	0	0	0	0	0	0	0	0	0	0	0	0	0	0	0	0	0	0	0	0	0	0	0	
Average # of Memory Banks Accessed per Memory Operation per Warp=-nan

position of mrq chosen
0	0	0	0	0	0	0	0	0	0	0	0	0	0	0	0	

average position of mrq chosen = -nan
Memory Partition 0: 
Cache L2_bank_000:
MSHR contents

Cache L2_bank_001:
MSHR contents

In Dram Latency Queue (total = 0): 
DRAM[0]: 16 bks, busW=4 BL=8 CL=12, tRRD=2 tCCD=6, tRCD=12 tRAS=28 tRP=12 tRC=40
n_cmd=1828466 n_nop=1797539 n_act=4867 n_pre=4851 n_req=11053 n_rd=18732 n_write=2477 bw_util=0.0232
n_activity=245898 dram_eff=0.1725
bk0: 1138a 1819687i bk1: 966a 1821138i bk2: 1112a 1817772i bk3: 990a 1818091i bk4: 1298a 1814628i bk5: 1066a 1817471i bk6: 1230a 1816400i bk7: 1148a 1816404i bk8: 1572a 1810482i bk9: 1306a 1812177i bk10: 1436a 1810943i bk11: 1242a 1812982i bk12: 1170a 1817694i bk13: 1068a 1819084i bk14: 1038a 1820872i bk15: 952a 1820902i 
dram_util_bins: 0 0 0 0 0 0 0 0 0 0
dram_eff_bins: 0 0 0 0 0 0 0 0 0 0
mrqq: max=16 avg=0.0361057
Memory Partition 1: 
Cache L2_bank_002:
MSHR contents

Cache L2_bank_003:
MSHR contents

In Dram Latency Queue (total = 0): 
DRAM[1]: 16 bks, busW=4 BL=8 CL=12, tRRD=2 tCCD=6, tRCD=12 tRAS=28 tRP=12 tRC=40
n_cmd=1828466 n_nop=1798587 n_act=4786 n_pre=4770 n_req=10613 n_rd=17916 n_write=2407 bw_util=0.02223
n_activity=242984 dram_eff=0.1673
bk0: 1036a 1820305i bk1: 764a 1823032i bk2: 1070a 1818029i bk3: 960a 1818783i bk4: 1132a 1817049i bk5: 946a 1818688i bk6: 1264a 1815698i bk7: 1188a 1816323i bk8: 1504a 1810642i bk9: 1128a 1815359i bk10: 1502a 1809950i bk11: 1384a 1810925i bk12: 1090a 1817823i bk13: 928a 1819753i bk14: 1006a 1820646i bk15: 1014a 1820125i 
dram_util_bins: 0 0 0 0 0 0 0 0 0 0
dram_eff_bins: 0 0 0 0 0 0 0 0 0 0
mrqq: max=16 avg=0.0322363
Memory Partition 2: 
Cache L2_bank_004:
MSHR contents

Cache L2_bank_005:
MSHR contents

In Dram Latency Queue (total = 0): 
DRAM[2]: 16 bks, busW=4 BL=8 CL=12, tRRD=2 tCCD=6, tRCD=12 tRAS=28 tRP=12 tRC=40
n_cmd=1828466 n_nop=1797292 n_act=4952 n_pre=4936 n_req=11083 n_rd=18850 n_write=2436 bw_util=0.02328
n_activity=249023 dram_eff=0.171
bk0: 958a 1821109i bk1: 1080a 1820386i bk2: 1070a 1817980i bk3: 1126a 1817308i bk4: 1104a 1817340i bk5: 1180a 1816801i bk6: 1206a 1816112i bk7: 1254a 1814884i bk8: 1344a 1812313i bk9: 1468a 1811154i bk10: 1412a 1810572i bk11: 1492a 1810303i bk12: 984a 1818926i bk13: 1160a 1818673i bk14: 960a 1821305i bk15: 1052a 1820151i 
dram_util_bins: 0 0 0 0 0 0 0 0 0 0
dram_eff_bins: 0 0 0 0 0 0 0 0 0 0
mrqq: max=16 avg=0.0358224
Memory Partition 3: 
Cache L2_bank_006:
MSHR contents

Cache L2_bank_007:
MSHR contents

In Dram Latency Queue (total = 0): 
DRAM[3]: 16 bks, busW=4 BL=8 CL=12, tRRD=2 tCCD=6, tRCD=12 tRAS=28 tRP=12 tRC=40
n_cmd=1828466 n_nop=1798969 n_act=4631 n_pre=4615 n_req=10553 n_rd=17878 n_write=2373 bw_util=0.02215
n_activity=238314 dram_eff=0.17
bk0: 756a 1823213i bk1: 1058a 1820524i bk2: 906a 1819625i bk3: 1044a 1818143i bk4: 1016a 1818565i bk5: 1186a 1816093i bk6: 1228a 1816025i bk7: 1158a 1816935i bk8: 1240a 1813909i bk9: 1472a 1811747i bk10: 1334a 1812166i bk11: 1388a 1811498i bk12: 1012a 1818856i bk13: 1146a 1818768i bk14: 944a 1820843i bk15: 990a 1820943i 
dram_util_bins: 0 0 0 0 0 0 0 0 0 0
dram_eff_bins: 0 0 0 0 0 0 0 0 0 0
mrqq: max=16 avg=0.0330939
Memory Partition 4: 
Cache L2_bank_008:
MSHR contents

Cache L2_bank_009:
MSHR contents

In Dram Latency Queue (total = 0): 
DRAM[4]: 16 bks, busW=4 BL=8 CL=12, tRRD=2 tCCD=6, tRCD=12 tRAS=28 tRP=12 tRC=40
n_cmd=1828466 n_nop=1797183 n_act=4939 n_pre=4923 n_req=11151 n_rd=18934 n_write=2487 bw_util=0.02343
n_activity=249039 dram_eff=0.172
bk0: 1132a 1820194i bk1: 954a 1821214i bk2: 1136a 1817330i bk3: 1010a 1818155i bk4: 1190a 1815618i bk5: 1008a 1818211i bk6: 1300a 1815284i bk7: 1148a 1816291i bk8: 1534a 1810570i bk9: 1358a 1811545i bk10: 1472a 1810579i bk11: 1376a 1812002i bk12: 1216a 1817885i bk13: 1040a 1818876i bk14: 1076a 1819906i bk15: 984a 1820888i 
dram_util_bins: 0 0 0 0 0 0 0 0 0 0
dram_eff_bins: 0 0 0 0 0 0 0 0 0 0
mrqq: max=16 avg=0.0376594
Memory Partition 5: 
Cache L2_bank_010:
MSHR contents

Cache L2_bank_011:
MSHR contents

In Dram Latency Queue (total = 0): 
DRAM[5]: 16 bks, busW=4 BL=8 CL=12, tRRD=2 tCCD=6, tRCD=12 tRAS=28 tRP=12 tRC=40
n_cmd=1828466 n_nop=1798485 n_act=4710 n_pre=4694 n_req=10756 n_rd=18100 n_write=2477 bw_util=0.02251
n_activity=242957 dram_eff=0.1694
bk0: 1018a 1820846i bk1: 860a 1821803i bk2: 1136a 1817230i bk3: 912a 1819338i bk4: 1120a 1817554i bk5: 1056a 1817735i bk6: 1290a 1815719i bk7: 1134a 1816607i bk8: 1402a 1813288i bk9: 1298a 1813132i bk10: 1510a 1809670i bk11: 1302a 1811975i bk12: 1136a 1817573i bk13: 948a 1820413i bk14: 1040a 1820281i bk15: 938a 1821071i 
dram_util_bins: 0 0 0 0 0 0 0 0 0 0
dram_eff_bins: 0 0 0 0 0 0 0 0 0 0
mrqq: max=16 avg=0.0330977

========= L2 cache stats =========
L2_cache_bank[0]: Access = 91209, Miss = 4997, Miss_rate = 0.055, Pending_hits = 41, Reservation_fails = 227
L2_cache_bank[1]: Access = 91125, Miss = 4369, Miss_rate = 0.048, Pending_hits = 28, Reservation_fails = 0
L2_cache_bank[2]: Access = 91162, Miss = 4802, Miss_rate = 0.053, Pending_hits = 46, Reservation_fails = 111
L2_cache_bank[3]: Access = 93817, Miss = 4156, Miss_rate = 0.044, Pending_hits = 42, Reservation_fails = 0
L2_cache_bank[4]: Access = 91663, Miss = 4519, Miss_rate = 0.049, Pending_hits = 41, Reservation_fails = 179
L2_cache_bank[5]: Access = 96634, Miss = 4906, Miss_rate = 0.051, Pending_hits = 26, Reservation_fails = 231
L2_cache_bank[6]: Access = 91270, Miss = 4218, Miss_rate = 0.046, Pending_hits = 41, Reservation_fails = 0
L2_cache_bank[7]: Access = 94021, Miss = 4721, Miss_rate = 0.050, Pending_hits = 57, Reservation_fails = 0
L2_cache_bank[8]: Access = 91307, Miss = 5028, Miss_rate = 0.055, Pending_hits = 20, Reservation_fails = 0
L2_cache_bank[9]: Access = 94062, Miss = 4439, Miss_rate = 0.047, Pending_hits = 36, Reservation_fails = 0
L2_cache_bank[10]: Access = 92219, Miss = 4826, Miss_rate = 0.052, Pending_hits = 41, Reservation_fails = 0
L2_cache_bank[11]: Access = 94689, Miss = 4224, Miss_rate = 0.045, Pending_hits = 58, Reservation_fails = 0
L2_total_cache_accesses = 1113178
L2_total_cache_misses = 55205
L2_total_cache_miss_rate = 0.0496
L2_total_cache_pending_hits = 477
L2_total_cache_reservation_fails = 748
L2_total_cache_breakdown:
	L2_cache_stats_breakdown[GLOBAL_ACC_R][HIT] = 827320
	L2_cache_stats_breakdown[GLOBAL_ACC_R][HIT_RESERVED] = 19
	L2_cache_stats_breakdown[GLOBAL_ACC_R][MISS] = 50286
	L2_cache_stats_breakdown[GLOBAL_ACC_R][RESERVATION_FAIL] = 6
	L2_cache_stats_breakdown[CONST_ACC_R][HIT] = 11
	L2_cache_stats_breakdown[CONST_ACC_R][HIT_RESERVED] = 3
	L2_cache_stats_breakdown[CONST_ACC_R][MISS] = 1
	L2_cache_stats_breakdown[CONST_ACC_R][RESERVATION_FAIL] = 111
	L2_cache_stats_breakdown[GLOBAL_ACC_W][HIT] = 230093
	L2_cache_stats_breakdown[GLOBAL_ACC_W][HIT_RESERVED] = 443
	L2_cache_stats_breakdown[GLOBAL_ACC_W][MISS] = 4912
	L2_cache_stats_breakdown[GLOBAL_ACC_W][RESERVATION_FAIL] = 231
	L2_cache_stats_breakdown[INST_ACC_R][HIT] = 72
	L2_cache_stats_breakdown[INST_ACC_R][HIT_RESERVED] = 12
	L2_cache_stats_breakdown[INST_ACC_R][MISS] = 6
	L2_cache_stats_breakdown[INST_ACC_R][RESERVATION_FAIL] = 400
L2_cache_data_port_util = 0.214
L2_cache_fill_port_util = 0.013

icnt_total_pkts_mem_to_simt=4624068
icnt_total_pkts_simt_to_mem=1348888
LD_mem_lat_dist  0 0 0 0 0 0 0 0 0 0 0 0 0 0 0 0 0 0 0 0 0 0 0 0 0 0 0
ST_mem_lat_dist  0 0 0 0 0 0 0 0 0 0 0 0 0 0 0 0 0 0 0 0 0 0 0 0 0 0 0
----------------------------Interconnect-DETAILS--------------------------------
Class 0:
Packet latency average = 10.304
	minimum = 6
	maximum = 30
Network latency average = 9.694
	minimum = 6
	maximum = 25
Slowest packet = 2226068
Flit latency average = 8.05533
	minimum = 6
	maximum = 21
Slowest flit = 5972016
Fragmentation average = 0
	minimum = 0
	maximum = 0
Injected packet rate average = 0.0153936
	minimum = 0.0133001 (at node 0)
	maximum = 0.0182876 (at node 16)
Accepted packet rate average = 0.0153936
	minimum = 0.0133001 (at node 0)
	maximum = 0.0182876 (at node 16)
Injected flit rate average = 0.0461808
	minimum = 0.0133001 (at node 0)
	maximum = 0.0914381 (at node 16)
Accepted flit rate average= 0.0461808
	minimum = 0.0166251 (at node 15)
	maximum = 0.0831255 (at node 12)
Injected packet length average = 3
Accepted packet length average = 3
Total in-flight flits = 0 (0 measured)
====== Overall Traffic Statistics ======
====== Traffic class 0 ======
Packet latency average = 24.9493 (12 samples)
	minimum = 6 (12 samples)
	maximum = 157.417 (12 samples)
Network latency average = 17.0316 (12 samples)
	minimum = 6 (12 samples)
	maximum = 115.667 (12 samples)
Flit latency average = 17.5121 (12 samples)
	minimum = 6 (12 samples)
	maximum = 113.083 (12 samples)
Fragmentation average = 3.45561e-07 (12 samples)
	minimum = 0 (12 samples)
	maximum = 0.5 (12 samples)
Injected packet rate average = 0.044488 (12 samples)
	minimum = 0.0311163 (12 samples)
	maximum = 0.116641 (12 samples)
Accepted packet rate average = 0.044488 (12 samples)
	minimum = 0.0311163 (12 samples)
	maximum = 0.116641 (12 samples)
Injected flit rate average = 0.0947738 (12 samples)
	minimum = 0.0465543 (12 samples)
	maximum = 0.210682 (12 samples)
Accepted flit rate average = 0.0947738 (12 samples)
	minimum = 0.0483277 (12 samples)
	maximum = 0.274064 (12 samples)
Injected packet size average = 2.13032 (12 samples)
Accepted packet size average = 2.13032 (12 samples)
Hops average = 1 (12 samples)
----------------------------END-of-Interconnect-DETAILS-------------------------


gpgpu_simulation_time = 0 days, 0 hrs, 10 min, 24 sec (624 sec)
gpgpu_simulation_rate = 21428 (inst/sec)
gpgpu_simulation_rate = 2219 (cycle/sec)
Kernel Executed 6 times
Result stored in result.txt
