

        *** GPGPU-Sim Simulator Version 3.2.2  [build 0] ***


GPGPU-Sim PTX: simulation mode 0 (can change with PTX_SIM_MODE_FUNC environment variable:
               1=functional simulation only, 0=detailed performance simulator)
GPGPU-Sim: Configuration options:

-network_mode                           1 # Interconnection network mode
-inter_config_file   config_fermi_islip.icnt # Interconnection network config file
-gpgpu_ptx_use_cuobjdump                    1 # Use cuobjdump to extract ptx and sass from binaries
-gpgpu_experimental_lib_support                    0 # Try to extract code from cuda libraries [Broken because of unknown cudaGetExportTable]
-gpgpu_ptx_convert_to_ptxplus                    0 # Convert SASS (native ISA) to ptxplus and run ptxplus
-gpgpu_ptx_force_max_capability                   20 # Force maximum compute capability
-gpgpu_ptx_inst_debug_to_file                    0 # Dump executed instructions' debug information to file
-gpgpu_ptx_inst_debug_file       inst_debug.txt # Executed instructions' debug output file
-gpgpu_ptx_inst_debug_thread_uid                    1 # Thread UID for executed instructions' debug output
-gpgpu_simd_model                       1 # 1 = post-dominator
-gpgpu_shader_core_pipeline              1536:32 # shader core pipeline config, i.e., {<nthread>:<warpsize>}
-gpgpu_tex_cache:l1  4:128:24,L:R:m:N:L,F:128:4,128:2 # per-shader L1 texture cache  (READ-ONLY) config  {<nsets>:<bsize>:<assoc>,<rep>:<wr>:<alloc>:<wr_alloc>,<mshr>:<N>:<merge>,<mq>:<rf>}
-gpgpu_const_cache:l1 64:64:2,L:R:f:N:L,A:2:32,4 # per-shader L1 constant memory cache  (READ-ONLY) config  {<nsets>:<bsize>:<assoc>,<rep>:<wr>:<alloc>:<wr_alloc>,<mshr>:<N>:<merge>,<mq>} 
-gpgpu_cache:il1     4:128:4,L:R:f:N:L,A:2:32,4 # shader L1 instruction cache config  {<nsets>:<bsize>:<assoc>,<rep>:<wr>:<alloc>:<wr_alloc>,<mshr>:<N>:<merge>,<mq>} 
-gpgpu_cache:dl1     32:128:4,L:L:m:N:H,A:32:8,8 # per-shader L1 data cache config  {<nsets>:<bsize>:<assoc>,<rep>:<wr>:<alloc>:<wr_alloc>,<mshr>:<N>:<merge>,<mq> | none}
-gpgpu_cache:dl1PrefL1                 none # per-shader L1 data cache config  {<nsets>:<bsize>:<assoc>,<rep>:<wr>:<alloc>:<wr_alloc>,<mshr>:<N>:<merge>,<mq> | none}
-gpgpu_cache:dl1PreShared                 none # per-shader L1 data cache config  {<nsets>:<bsize>:<assoc>,<rep>:<wr>:<alloc>:<wr_alloc>,<mshr>:<N>:<merge>,<mq> | none}
-gmem_skip_L1D                          0 # global memory access skip L1D cache (implements -Xptxas -dlcm=cg, default=no skip)
-gpgpu_perfect_mem                      0 # enable perfect memory mode (no cache miss)
-n_regfile_gating_group                    4 # group of lanes that should be read/written together)
-gpgpu_clock_gated_reg_file                    0 # enable clock gated reg file for power calculations
-gpgpu_clock_gated_lanes                    0 # enable clock gated lanes for power calculations
-gpgpu_shader_registers                32768 # Number of registers per shader core. Limits number of concurrent CTAs. (default 8192)
-gpgpu_shader_cta                       8 # Maximum number of concurrent CTAs in shader (default 8)
-gpgpu_num_cta_barriers                   16 # Maximum number of named barriers per CTA (default 16)
-gpgpu_n_clusters                      15 # number of processing clusters
-gpgpu_n_cores_per_cluster                    1 # number of simd cores per cluster
-gpgpu_n_cluster_ejection_buffer_size                    8 # number of packets in ejection buffer
-gpgpu_n_ldst_response_buffer_size                    2 # number of response packets in ld/st unit ejection buffer
-gpgpu_shmem_size                   16384 # Size of shared memory per shader core (default 16kB)
-gpgpu_shmem_size                   49152 # Size of shared memory per shader core (default 16kB)
-gpgpu_shmem_size_PrefL1                16384 # Size of shared memory per shader core (default 16kB)
-gpgpu_shmem_size_PrefShared                16384 # Size of shared memory per shader core (default 16kB)
-gpgpu_shmem_num_banks                   32 # Number of banks in the shared memory in each shader core (default 16)
-gpgpu_shmem_limited_broadcast                    0 # Limit shared memory to do one broadcast per cycle (default on)
-gpgpu_shmem_warp_parts                    1 # Number of portions a warp is divided into for shared memory bank conflict check 
-gpgpu_warpdistro_shader                   -1 # Specify which shader core to collect the warp size distribution from
-gpgpu_warp_issue_shader                    0 # Specify which shader core to collect the warp issue distribution from
-gpgpu_local_mem_map                    1 # Mapping from local memory space address to simulated GPU physical address space (default = enabled)
-gpgpu_num_reg_banks                   16 # Number of register banks (default = 8)
-gpgpu_reg_bank_use_warp_id                    0 # Use warp ID in mapping registers to banks (default = off)
-gpgpu_operand_collector_num_units_sp                    6 # number of collector units (default = 4)
-gpgpu_operand_collector_num_units_sfu                    8 # number of collector units (default = 4)
-gpgpu_operand_collector_num_units_mem                    2 # number of collector units (default = 2)
-gpgpu_operand_collector_num_units_gen                    0 # number of collector units (default = 0)
-gpgpu_operand_collector_num_in_ports_sp                    2 # number of collector unit in ports (default = 1)
-gpgpu_operand_collector_num_in_ports_sfu                    1 # number of collector unit in ports (default = 1)
-gpgpu_operand_collector_num_in_ports_mem                    1 # number of collector unit in ports (default = 1)
-gpgpu_operand_collector_num_in_ports_gen                    0 # number of collector unit in ports (default = 0)
-gpgpu_operand_collector_num_out_ports_sp                    2 # number of collector unit in ports (default = 1)
-gpgpu_operand_collector_num_out_ports_sfu                    1 # number of collector unit in ports (default = 1)
-gpgpu_operand_collector_num_out_ports_mem                    1 # number of collector unit in ports (default = 1)
-gpgpu_operand_collector_num_out_ports_gen                    0 # number of collector unit in ports (default = 0)
-gpgpu_coalesce_arch                   13 # Coalescing arch (default = 13, anything else is off for now)
-gpgpu_num_sched_per_core                    2 # Number of warp schedulers per core
-gpgpu_max_insn_issue_per_warp                    1 # Max number of instructions that can be issued per warp in one cycle by scheduler
-gpgpu_simt_core_sim_order                    1 # Select the simulation order of cores in a cluster (0=Fix, 1=Round-Robin)
-gpgpu_pipeline_widths        2,1,1,2,1,1,2 # Pipeline widths ID_OC_SP,ID_OC_SFU,ID_OC_MEM,OC_EX_SP,OC_EX_SFU,OC_EX_MEM,EX_WB
-gpgpu_num_sp_units                     2 # Number of SP units (default=1)
-gpgpu_num_sfu_units                    1 # Number of SF units (default=1)
-gpgpu_num_mem_units                    1 # Number if ldst units (default=1) WARNING: not hooked up to anything
-gpgpu_scheduler                      gto # Scheduler configuration: < lrr | gto | two_level_active > If two_level_active:<num_active_warps>:<inner_prioritization>:<outer_prioritization>For complete list of prioritization values see shader.h enum scheduler_prioritization_typeDefault: gto
-gpgpu_dram_scheduler                    1 # 0 = fifo, 1 = FR-FCFS (defaul)
-gpgpu_dram_partition_queues              8:8:8:8 # i2$:$2d:d2$:$2i
-l2_ideal                               0 # Use a ideal L2 cache that always hit
-gpgpu_cache:dl2     64:128:16,L:B:m:W:L,A:32:4,4:0,32 # unified banked L2 data cache config  {<nsets>:<bsize>:<assoc>,<rep>:<wr>:<alloc>:<wr_alloc>,<mshr>:<N>:<merge>,<mq>}
-gpgpu_cache:dl2_texture_only                    0 # L2 cache used for texture only
-gpgpu_n_mem                            6 # number of memory modules (e.g. memory controllers) in gpu
-gpgpu_n_sub_partition_per_mchannel                    2 # number of memory subpartition in each memory module
-gpgpu_n_mem_per_ctrlr                    2 # number of memory chips per memory controller
-gpgpu_memlatency_stat                   14 # track and display latency statistics 0x2 enables MC, 0x4 enables queue logs
-gpgpu_frfcfs_dram_sched_queue_size                   16 # 0 = unlimited (default); # entries per chip
-gpgpu_dram_return_queue_size                  116 # 0 = unlimited (default); # entries per chip
-gpgpu_dram_buswidth                    4 # default = 4 bytes (8 bytes per cycle at DDR)
-gpgpu_dram_burst_length                    8 # Burst length of each DRAM request (default = 4 data bus cycle)
-dram_data_command_freq_ratio                    4 # Frequency ratio between DRAM data bus and command bus (default = 2 times, i.e. DDR)
-gpgpu_dram_timing_opt nbk=16:CCD=2:RRD=6:RCD=12:RAS=28:RP=12:RC=40: CL=12:WL=4:CDLR=5:WR=12:nbkgrp=4:CCDL=3:RTPL=2 # DRAM timing parameters = {nbk:tCCD:tRRD:tRCD:tRAS:tRP:tRC:CL:WL:tCDLR:tWR:nbkgrp:tCCDL:tRTPL}
-rop_latency                          120 # ROP queue latency (default 85)
-dram_latency                         100 # DRAM latency (default 30)
-gpgpu_mem_addr_mapping dramid@8;00000000.00000000.00000000.00000000.0000RRRR.RRRRRRRR.BBBCCCCB.CCSSSSSS # mapping memory address to dram model {dramid@<start bit>;<memory address map>}
-gpgpu_mem_addr_test                    0 # run sweep test to check address mapping for aliased address
-gpgpu_mem_address_mask                    1 # 0 = old addressing mask, 1 = new addressing mask, 2 = new add. mask + flipped bank sel and chip sel bits
-gpuwattch_xml_file  gpuwattch_gtx480.xml # GPUWattch XML file
-power_simulation_enabled                    1 # Turn on power simulator (1=On, 0=Off)
-power_per_cycle_dump                    0 # Dump detailed power output each cycle
-power_trace_enabled                    0 # produce a file for the power trace (1=On, 0=Off)
-power_trace_zlevel                     6 # Compression level of the power trace output log (0=no comp, 9=highest)
-steady_power_levels_enabled                    0 # produce a file for the steady power levels (1=On, 0=Off)
-steady_state_definition                  8:4 # allowed deviation:number of samples
-gpgpu_max_cycle                        0 # terminates gpu simulation early (0 = no limit)
-gpgpu_max_insn                         0 # terminates gpu simulation early (0 = no limit)
-gpgpu_max_cta                          0 # terminates gpu simulation early (0 = no limit)
-gpgpu_runtime_stat                   500 # display runtime statistics such as dram utilization {<freq>:<flag>}
-liveness_message_freq                    1 # Minimum number of seconds between simulation liveness messages (0 = always print)
-gpgpu_flush_l1_cache                    0 # Flush L1 cache at the end of each kernel call
-gpgpu_flush_l2_cache                    0 # Flush L2 cache at the end of each kernel call
-gpgpu_deadlock_detect                    1 # Stop the simulation at deadlock (1=on (default), 0=off)
-gpgpu_ptx_instruction_classification                    0 # if enabled will classify ptx instruction types per kernel (Max 255 kernels now)
-gpgpu_ptx_sim_mode                     0 # Select between Performance (default) or Functional simulation (1)
-gpgpu_clock_domains 700.0:700.0:700.0:924.0 # Clock Domain Frequencies in MhZ {<Core Clock>:<ICNT Clock>:<L2 Clock>:<DRAM Clock>}
-gpgpu_max_concurrent_kernel                    8 # maximum kernels that can run concurrently on GPU
-gpgpu_cflog_interval                    0 # Interval between each snapshot in control flow logger
-visualizer_enabled                     0 # Turn on visualizer output (1=On, 0=Off)
-visualizer_outputfile                 NULL # Specifies the output log file for visualizer
-visualizer_zlevel                      6 # Compression level of the visualizer output log (0=no comp, 9=highest)
-trace_enabled                          0 # Turn on traces
-trace_components                    none # comma seperated list of traces to enable. Complete list found in trace_streams.tup. Default none
-trace_sampling_core                    0 # The core which is printed using CORE_DPRINTF. Default 0
-trace_sampling_memory_partition                   -1 # The memory partition which is printed using MEMPART_DPRINTF. Default -1 (i.e. all)
-enable_ptx_file_line_stats                    1 # Turn on PTX source line statistic profiling. (1 = On)
-ptx_line_stats_filename gpgpu_inst_stats.txt # Output file for PTX source line statistics.
-save_embedded_ptx                      0 # saves ptx files embedded in binary as <n>.ptx
-keep                                   0 # keep intermediate files created by GPGPU-Sim when interfacing with external programs
-gpgpu_ptx_save_converted_ptxplus                    0 # Saved converted ptxplus to a file
-ptx_opcode_latency_int         4,13,4,5,145 # Opcode latencies for integers <ADD,MAX,MUL,MAD,DIV>Default 1,1,19,25,145
-ptx_opcode_latency_fp          4,13,4,5,39 # Opcode latencies for single precision floating points <ADD,MAX,MUL,MAD,DIV>Default 1,1,1,1,30
-ptx_opcode_latency_dp         8,19,8,8,330 # Opcode latencies for double precision floating points <ADD,MAX,MUL,MAD,DIV>Default 8,8,8,8,335
-ptx_opcode_initiation_int            1,2,2,1,8 # Opcode initiation intervals for integers <ADD,MAX,MUL,MAD,DIV>Default 1,1,4,4,32
-ptx_opcode_initiation_fp            1,2,1,1,4 # Opcode initiation intervals for single precision floating points <ADD,MAX,MUL,MAD,DIV>Default 1,1,1,1,5
-ptx_opcode_initiation_dp         8,16,8,8,130 # Opcode initiation intervals for double precision floating points <ADD,MAX,MUL,MAD,DIV>Default 8,8,8,8,130
DRAM Timing Options:
nbk                                    16 # number of banks
CCD                                     2 # column to column delay
RRD                                     6 # minimal delay between activation of rows in different banks
RCD                                    12 # row to column delay
RAS                                    28 # time needed to activate row
RP                                     12 # time needed to precharge (deactivate) row
RC                                     40 # row cycle time
CDLR                                    5 # switching from write to read (changes tWTR)
WR                                     12 # last data-in to row precharge
CL                                     12 # CAS latency
WL                                      4 # Write latency
nbkgrp                                  4 # number of bank groups
CCDL                                    3 # column to column delay between accesses to different bank groups
RTPL                                    2 # read to precharge delay between accesses to different bank groups
Total number of memory sub partition = 12
addr_dec_mask[CHIP]  = 0000000000000000 	high:64 low:0
addr_dec_mask[BK]    = 000000000000e100 	high:16 low:8
addr_dec_mask[ROW]   = 000000000fff0000 	high:28 low:16
addr_dec_mask[COL]   = 0000000000001eff 	high:13 low:0
addr_dec_mask[BURST] = 000000000000003f 	high:6 low:0
sub_partition_id_mask = 0000000000000100
GPGPU-Sim uArch: clock freqs: 700000000.000000:700000000.000000:700000000.000000:924000000.000000
GPGPU-Sim uArch: clock periods: 0.00000000142857142857:0.00000000142857142857:0.00000000142857142857:0.00000000108225108225
*** Initializing Memory Statistics ***
GPGPU-Sim uArch: interconnect node map (shaderID+MemID to icntID)
GPGPU-Sim uArch: Memory nodes ID start from index: 15
GPGPU-Sim uArch:    0   1   2   3   4
GPGPU-Sim uArch:    5   6   7   8   9
GPGPU-Sim uArch:   10  11  12  13  14
GPGPU-Sim uArch:   15  16  17  18  19
GPGPU-Sim uArch:   20  21  22  23  24
GPGPU-Sim uArch:   25  26
GPGPU-Sim uArch: interconnect node reverse map (icntID to shaderID+MemID)
GPGPU-Sim uArch: Memory nodes start from ID: 15
GPGPU-Sim uArch:    0   1   2   3   4
GPGPU-Sim uArch:    5   6   7   8   9
GPGPU-Sim uArch:   10  11  12  13  14
GPGPU-Sim uArch:   15  16  17  18  19
GPGPU-Sim uArch:   20  21  22  23  24
GPGPU-Sim uArch:   25  26
328a61d178d3e8b45ddd3c2e89e11ce0  /home/scratch/adwait/applications/benchmarks/CUDA/SCP/gpgpu_ptx_sim__SCP
GPGPU-Sim uArch: performance model initialization complete.
GPGPU-Sim PTX: __cudaRegisterFatBinary, fat_cubin_handle = 1, filename=scalarProd.cu
self exe links to: /home/scratch/adwait/applications/benchmarks/CUDA/SCP/gpgpu_ptx_sim__SCP
Running md5sum using "md5sum /home/scratch/adwait/applications/benchmarks/CUDA/SCP/gpgpu_ptx_sim__SCP "
Running cuobjdump using "$CUDA_INSTALL_PATH/bin/cuobjdump -ptx -elf -sass /home/scratch/adwait/applications/benchmarks/CUDA/SCP/gpgpu_ptx_sim__SCP > _cuobjdump_complete_output_xp0OlH"
Parsing file _cuobjdump_complete_output_xp0OlH
######### cuobjdump parser ########
## Adding new section ELF
Adding arch: sm_20
Adding identifier: scalarProd.cu
## Adding new section PTX
Adding ptx filename: _cuobjdump_1.ptx
Adding arch: sm_20
Adding identifier: scalarProd.cu
Done parsing!!!
GPGPU-Sim PTX: __cudaRegisterFunction _Z13scalarProdGPUPfS_S_ii : hostFun 0x0x40483d, fat_cubin_handle = 1
GPGPU-Sim PTX: allocating shared region for "__cuda___cuda_local_var_42747_35_non_const_accumResult32" from 0x0 to 0x1000 (shared memory space)
GPGPU-Sim PTX: instruction assembly for function '_Z13scalarProdGPUPfS_S_ii'...   done.
GPGPU-Sim PTX: finding reconvergence points for '_Z13scalarProdGPUPfS_S_ii'...
GPGPU-Sim PTX: Finding dominators for '_Z13scalarProdGPUPfS_S_ii'...
GPGPU-Sim PTX: Finding immediate dominators for '_Z13scalarProdGPUPfS_S_ii'...
GPGPU-Sim PTX: Finding postdominators for '_Z13scalarProdGPUPfS_S_ii'...
GPGPU-Sim PTX: Finding immediate postdominators for '_Z13scalarProdGPUPfS_S_ii'...
GPGPU-Sim PTX: pre-decoding instructions for '_Z13scalarProdGPUPfS_S_ii'...
GPGPU-Sim PTX: reconvergence points for _Z13scalarProdGPUPfS_S_ii...
GPGPU-Sim PTX:  1 (potential) branch divergence @  PC=0x020 (_1.ptx:70) @%p1 bra $Lt_0_6146;
GPGPU-Sim PTX:    immediate post dominator      @  PC=0x308 (_1.ptx:187) exit;
GPGPU-Sim PTX:  2 (potential) branch divergence @  PC=0x068 (_1.ptx:81) @!%p2 bra $Lt_0_6914;
GPGPU-Sim PTX:    immediate post dominator      @  PC=0x1d8 (_1.ptx:137) mov.s32 %r25, 512;
GPGPU-Sim PTX:  3 (potential) branch divergence @  PC=0x0e0 (_1.ptx:99) @%p4 bra $Lt_0_12290;
GPGPU-Sim PTX:    immediate post dominator      @  PC=0x1b0 (_1.ptx:131) st.shared.f32 [%rd6+0], %f1;
GPGPU-Sim PTX:  4 (potential) branch divergence @  PC=0x198 (_1.ptx:125) @%p5 bra $Lt_0_8194;
GPGPU-Sim PTX:    immediate post dominator      @  PC=0x1a0 (_1.ptx:126) bra.uni $Lt_0_7682;
GPGPU-Sim PTX:  5 (potential) branch divergence @  PC=0x1a0 (_1.ptx:126) bra.uni $Lt_0_7682;
GPGPU-Sim PTX:    immediate post dominator      @  PC=0x1b0 (_1.ptx:131) st.shared.f32 [%rd6+0], %f1;
GPGPU-Sim PTX:  6 (potential) branch divergence @  PC=0x1d0 (_1.ptx:135) @%p6 bra $Lt_0_7426;
GPGPU-Sim PTX:    immediate post dominator      @  PC=0x1d8 (_1.ptx:137) mov.s32 %r25, 512;
GPGPU-Sim PTX:  7 (potential) branch divergence @  PC=0x1f0 (_1.ptx:143) @%p7 bra $Lt_0_9730;
GPGPU-Sim PTX:    immediate post dominator      @  PC=0x298 (_1.ptx:169) shr.s32 %r25, %r25, 1;
GPGPU-Sim PTX:  8 (potential) branch divergence @  PC=0x290 (_1.ptx:166) @%p8 bra $Lt_0_10242;
GPGPU-Sim PTX:    immediate post dominator      @  PC=0x298 (_1.ptx:169) shr.s32 %r25, %r25, 1;
GPGPU-Sim PTX:  9 (potential) branch divergence @  PC=0x2b0 (_1.ptx:172) @%p9 bra $Lt_0_9474;
GPGPU-Sim PTX:    immediate post dominator      @  PC=0x2b8 (_1.ptx:173) @!%p3 bra $Lt_0_11010;
GPGPU-Sim PTX: 10 (potential) branch divergence @  PC=0x2b8 (_1.ptx:173) @!%p3 bra $Lt_0_11010;
GPGPU-Sim PTX:    immediate post dominator      @  PC=0x2f0 (_1.ptx:182) add.u32 %r2, %r2, %r8;
GPGPU-Sim PTX: 11 (potential) branch divergence @  PC=0x300 (_1.ptx:184) @%p10 bra $Lt_0_6658;
GPGPU-Sim PTX:    immediate post dominator      @  PC=0x308 (_1.ptx:187) exit;
GPGPU-Sim PTX: ... end of reconvergence points for _Z13scalarProdGPUPfS_S_ii
GPGPU-Sim PTX: ... done pre-decoding instructions for '_Z13scalarProdGPUPfS_S_ii'.
GPGPU-Sim PTX: finished parsing EMBEDDED .ptx file _1.ptx
Adding _cuobjdump_1.ptx with cubin handle 1
GPGPU-Sim PTX: extracting embedded .ptx to temporary file "_ptx_LCjRPu"
Running: cat _ptx_LCjRPu | sed 's/.version 1.5/.version 1.4/' | sed 's/, texmode_independent//' | sed 's/\(\.extern \.const\[1\] .b8 \w\+\)\[\]/\1\[1\]/' | sed 's/const\[.\]/const\[0\]/g' > _ptx2_NWBdki
GPGPU-Sim PTX: generating ptxinfo using "$CUDA_INSTALL_PATH/bin/ptxas --gpu-name=sm_20 -v _ptx2_NWBdki --output-file  /dev/null 2> _ptx_LCjRPuinfo"
GPGPU-Sim PTX: Kernel '_Z13scalarProdGPUPfS_S_ii' : regs=18, lmem=0, smem=4096, cmem=68
GPGPU-Sim PTX: removing ptxinfo using "rm -f _ptx_LCjRPu _ptx2_NWBdki _ptx_LCjRPuinfo"
GPGPU-Sim PTX: loading globals with explicit initializers... 
GPGPU-Sim PTX: finished loading globals (0 bytes total).
GPGPU-Sim PTX: loading constants with explicit initializers...  done.
Initializing data...
...allocating CPU memory.
...allocating GPU memory.
...generating input data in CPU mem.
...copying input data to GPU mem.
Data init done.
Executing GPU kernel...
GPGPU-Sim: synchronize waiting for inactive GPU simulation
GPGPU-Sim API: Stream Manager State
GPGPU-Sim: detected inactive GPU simulation thread

GPGPU-Sim PTX: cudaLaunch for 0x0x40483d (mode=performance simulation) on stream 0
GPGPU-Sim PTX: pushing kernel '_Z13scalarProdGPUPfS_S_ii' to stream 0, gridDim= (128,1,1) blockDim = (256,1,1) 
kernel '_Z13scalarProdGPUPfS_S_ii' transfer to GPU hardware scheduler
GPGPU-Sim uArch: Shader 1 bind to kernel 1 '_Z13scalarProdGPUPfS_S_ii'
GPGPU-Sim uArch: CTA/core = 6, limited by: threads regs
GPGPU-Sim uArch: core:  1, cta: 0 initialized @(1,0)
GPGPU-Sim uArch: Shader 2 bind to kernel 1 '_Z13scalarProdGPUPfS_S_ii'
GPGPU-Sim uArch: core:  2, cta: 0 initialized @(1,0)
GPGPU-Sim uArch: Shader 3 bind to kernel 1 '_Z13scalarProdGPUPfS_S_ii'
GPGPU-Sim uArch: core:  3, cta: 0 initialized @(1,0)
GPGPU-Sim uArch: Shader 4 bind to kernel 1 '_Z13scalarProdGPUPfS_S_ii'
GPGPU-Sim uArch: core:  4, cta: 0 initialized @(1,0)
GPGPU-Sim uArch: Shader 5 bind to kernel 1 '_Z13scalarProdGPUPfS_S_ii'
GPGPU-Sim uArch: core:  5, cta: 0 initialized @(1,0)
GPGPU-Sim uArch: Shader 6 bind to kernel 1 '_Z13scalarProdGPUPfS_S_ii'
GPGPU-Sim uArch: core:  6, cta: 0 initialized @(1,0)
GPGPU-Sim uArch: Shader 7 bind to kernel 1 '_Z13scalarProdGPUPfS_S_ii'
GPGPU-Sim uArch: core:  7, cta: 0 initialized @(1,0)
GPGPU-Sim uArch: Shader 8 bind to kernel 1 '_Z13scalarProdGPUPfS_S_ii'
GPGPU-Sim uArch: core:  8, cta: 0 initialized @(1,0)
GPGPU-Sim uArch: Shader 9 bind to kernel 1 '_Z13scalarProdGPUPfS_S_ii'
GPGPU-Sim uArch: core:  9, cta: 0 initialized @(1,0)
GPGPU-Sim uArch: Shader 10 bind to kernel 1 '_Z13scalarProdGPUPfS_S_ii'
GPGPU-Sim uArch: core: 10, cta: 0 initialized @(1,0)
GPGPU-Sim uArch: Shader 11 bind to kernel 1 '_Z13scalarProdGPUPfS_S_ii'
GPGPU-Sim uArch: core: 11, cta: 0 initialized @(1,0)
GPGPU-Sim uArch: Shader 12 bind to kernel 1 '_Z13scalarProdGPUPfS_S_ii'
GPGPU-Sim uArch: core: 12, cta: 0 initialized @(1,0)
GPGPU-Sim uArch: Shader 13 bind to kernel 1 '_Z13scalarProdGPUPfS_S_ii'
GPGPU-Sim uArch: core: 13, cta: 0 initialized @(1,0)
GPGPU-Sim uArch: Shader 14 bind to kernel 1 '_Z13scalarProdGPUPfS_S_ii'
GPGPU-Sim uArch: core: 14, cta: 0 initialized @(1,0)
GPGPU-Sim uArch: Shader 0 bind to kernel 1 '_Z13scalarProdGPUPfS_S_ii'
GPGPU-Sim uArch: core:  0, cta: 0 initialized @(1,0)
GPGPU-Sim uArch: core:  1, cta: 1 initialized @(2,0)
GPGPU-Sim uArch: core:  2, cta: 1 initialized @(2,0)
GPGPU-Sim uArch: core:  3, cta: 1 initialized @(2,0)
GPGPU-Sim uArch: core:  4, cta: 1 initialized @(2,0)
GPGPU-Sim uArch: core:  5, cta: 1 initialized @(2,0)
GPGPU-Sim uArch: core:  6, cta: 1 initialized @(2,0)
GPGPU-Sim uArch: core:  7, cta: 1 initialized @(2,0)
GPGPU-Sim uArch: core:  8, cta: 1 initialized @(2,0)
GPGPU-Sim uArch: core:  9, cta: 1 initialized @(2,0)
GPGPU-Sim uArch: core: 10, cta: 1 initialized @(2,0)
GPGPU-Sim uArch: core: 11, cta: 1 initialized @(2,0)
GPGPU-Sim uArch: core: 12, cta: 1 initialized @(2,0)
GPGPU-Sim uArch: core: 13, cta: 1 initialized @(2,0)
GPGPU-Sim uArch: core: 14, cta: 1 initialized @(2,0)
GPGPU-Sim uArch: core:  0, cta: 1 initialized @(2,0)
GPGPU-Sim uArch: core:  1, cta: 2 initialized @(3,0)
GPGPU-Sim uArch: core:  2, cta: 2 initialized @(3,0)
GPGPU-Sim uArch: core:  3, cta: 2 initialized @(3,0)
GPGPU-Sim uArch: core:  4, cta: 2 initialized @(3,0)
GPGPU-Sim uArch: core:  5, cta: 2 initialized @(3,0)
GPGPU-Sim uArch: core:  6, cta: 2 initialized @(3,0)
GPGPU-Sim uArch: core:  7, cta: 2 initialized @(3,0)
GPGPU-Sim uArch: core:  8, cta: 2 initialized @(3,0)
GPGPU-Sim uArch: core:  9, cta: 2 initialized @(3,0)
GPGPU-Sim uArch: core: 10, cta: 2 initialized @(3,0)
GPGPU-Sim uArch: core: 11, cta: 2 initialized @(3,0)
GPGPU-Sim uArch: core: 12, cta: 2 initialized @(3,0)
GPGPU-Sim uArch: core: 13, cta: 2 initialized @(3,0)
GPGPU-Sim uArch: core: 14, cta: 2 initialized @(3,0)
GPGPU-Sim uArch: core:  0, cta: 2 initialized @(3,0)
GPGPU-Sim uArch: core:  1, cta: 3 initialized @(4,0)
GPGPU-Sim uArch: core:  2, cta: 3 initialized @(4,0)
GPGPU-Sim uArch: core:  3, cta: 3 initialized @(4,0)
GPGPU-Sim uArch: core:  4, cta: 3 initialized @(4,0)
GPGPU-Sim uArch: core:  5, cta: 3 initialized @(4,0)
GPGPU-Sim uArch: core:  6, cta: 3 initialized @(4,0)
GPGPU-Sim uArch: core:  7, cta: 3 initialized @(4,0)
GPGPU-Sim uArch: core:  8, cta: 3 initialized @(4,0)
GPGPU-Sim uArch: core:  9, cta: 3 initialized @(4,0)
GPGPU-Sim uArch: core: 10, cta: 3 initialized @(4,0)
GPGPU-Sim uArch: core: 11, cta: 3 initialized @(4,0)
GPGPU-Sim uArch: core: 12, cta: 3 initialized @(4,0)
GPGPU-Sim uArch: core: 13, cta: 3 initialized @(4,0)
GPGPU-Sim uArch: core: 14, cta: 3 initialized @(4,0)
GPGPU-Sim uArch: core:  0, cta: 3 initialized @(4,0)
GPGPU-Sim uArch: core:  1, cta: 4 initialized @(5,0)
GPGPU-Sim uArch: core:  2, cta: 4 initialized @(5,0)
GPGPU-Sim uArch: core:  3, cta: 4 initialized @(5,0)
GPGPU-Sim uArch: core:  4, cta: 4 initialized @(5,0)
GPGPU-Sim uArch: core:  5, cta: 4 initialized @(5,0)
GPGPU-Sim uArch: core:  6, cta: 4 initialized @(5,0)
GPGPU-Sim uArch: core:  7, cta: 4 initialized @(5,0)
GPGPU-Sim uArch: core:  8, cta: 4 initialized @(5,0)
GPGPU-Sim uArch: core:  9, cta: 4 initialized @(5,0)
GPGPU-Sim uArch: core: 10, cta: 4 initialized @(5,0)
GPGPU-Sim uArch: core: 11, cta: 4 initialized @(5,0)
GPGPU-Sim uArch: core: 12, cta: 4 initialized @(5,0)
GPGPU-Sim uArch: core: 13, cta: 4 initialized @(5,0)
GPGPU-Sim uArch: core: 14, cta: 4 initialized @(5,0)
GPGPU-Sim uArch: core:  0, cta: 4 initialized @(5,0)
GPGPU-Sim uArch: core:  1, cta: 5 initialized @(6,0)
GPGPU-Sim uArch: core:  2, cta: 5 initialized @(6,0)
GPGPU-Sim uArch: core:  3, cta: 5 initialized @(6,0)
GPGPU-Sim uArch: core:  4, cta: 5 initialized @(6,0)
GPGPU-Sim uArch: core:  5, cta: 5 initialized @(6,0)
GPGPU-Sim uArch: core:  6, cta: 5 initialized @(6,0)
GPGPU-Sim uArch: core:  7, cta: 5 initialized @(6,0)
GPGPU-Sim uArch: core:  8, cta: 5 initialized @(6,0)
GPGPU-Sim uArch: core:  9, cta: 5 initialized @(6,0)
GPGPU-Sim uArch: core: 10, cta: 5 initialized @(6,0)
GPGPU-Sim uArch: core: 11, cta: 5 initialized @(6,0)
GPGPU-Sim uArch: core: 12, cta: 5 initialized @(6,0)
GPGPU-Sim uArch: core: 13, cta: 5 initialized @(6,0)
GPGPU-Sim uArch: core: 14, cta: 5 initialized @(6,0)
GPGPU-Sim uArch: core:  0, cta: 5 initialized @(6,0)
GPGPU-Sim uArch: cycles simulated: 500  inst.: 46080 (ipc=92.2) sim_rate=23040 (inst/sec) elapsed = 0:0:00:02 / Wed May  1 12:43:50 2019
GPGPU-Sim PTX: 100000 instructions simulated : ctaid=(16,0,0) tid=(159,0,0)
GPGPU-Sim PTX: 200000 instructions simulated : ctaid=(49,0,0) tid=(127,0,0)
GPGPU-Sim PTX: 300000 instructions simulated : ctaid=(82,0,0) tid=(63,0,0)
GPGPU-Sim uArch: cycles simulated: 1000  inst.: 331456 (ipc=331.5) sim_rate=82864 (inst/sec) elapsed = 0:0:00:04 / Wed May  1 12:43:52 2019
GPGPU-Sim PTX: 400000 instructions simulated : ctaid=(71,0,0) tid=(223,0,0)
GPGPU-Sim PTX: 500000 instructions simulated : ctaid=(39,0,0) tid=(223,0,0)
GPGPU-Sim PTX: 600000 instructions simulated : ctaid=(22,0,0) tid=(31,0,0)
GPGPU-Sim PTX: 700000 instructions simulated : ctaid=(76,0,0) tid=(159,0,0)
GPGPU-Sim uArch: cycles simulated: 1500  inst.: 667232 (ipc=444.8) sim_rate=111205 (inst/sec) elapsed = 0:0:00:06 / Wed May  1 12:43:54 2019
GPGPU-Sim PTX: 800000 instructions simulated : ctaid=(13,0,0) tid=(31,0,0)
GPGPU-Sim PTX: 900000 instructions simulated : ctaid=(12,0,0) tid=(127,0,0)
GPGPU-Sim uArch: cycles simulated: 2000  inst.: 888384 (ipc=444.2) sim_rate=126912 (inst/sec) elapsed = 0:0:00:07 / Wed May  1 12:43:55 2019
GPGPU-Sim PTX: 1000000 instructions simulated : ctaid=(16,0,0) tid=(95,0,0)
GPGPU-Sim PTX: 1100000 instructions simulated : ctaid=(18,0,0) tid=(63,0,0)
GPGPU-Sim uArch: cycles simulated: 3000  inst.: 1065664 (ipc=355.2) sim_rate=133208 (inst/sec) elapsed = 0:0:00:08 / Wed May  1 12:43:56 2019
GPGPU-Sim PTX: 1200000 instructions simulated : ctaid=(57,0,0) tid=(159,0,0)
GPGPU-Sim uArch: cycles simulated: 3500  inst.: 1136672 (ipc=324.8) sim_rate=126296 (inst/sec) elapsed = 0:0:00:09 / Wed May  1 12:43:57 2019
GPGPU-Sim PTX: 1300000 instructions simulated : ctaid=(16,0,0) tid=(63,0,0)
GPGPU-Sim PTX: 1400000 instructions simulated : ctaid=(34,0,0) tid=(63,0,0)
GPGPU-Sim PTX: 1500000 instructions simulated : ctaid=(9,0,0) tid=(127,0,0)
GPGPU-Sim uArch: cycles simulated: 5000  inst.: 1431456 (ipc=286.3) sim_rate=143145 (inst/sec) elapsed = 0:0:00:10 / Wed May  1 12:43:58 2019
GPGPU-Sim PTX: 1600000 instructions simulated : ctaid=(7,0,0) tid=(223,0,0)
GPGPU-Sim uArch: cycles simulated: 5500  inst.: 1556288 (ipc=283.0) sim_rate=141480 (inst/sec) elapsed = 0:0:00:11 / Wed May  1 12:43:59 2019
GPGPU-Sim PTX: 1700000 instructions simulated : ctaid=(5,0,0) tid=(127,0,0)
GPGPU-Sim PTX: 1800000 instructions simulated : ctaid=(35,0,0) tid=(159,0,0)
GPGPU-Sim PTX: 1900000 instructions simulated : ctaid=(41,0,0) tid=(63,0,0)
GPGPU-Sim PTX: 2000000 instructions simulated : ctaid=(23,0,0) tid=(223,0,0)
GPGPU-Sim uArch: cycles simulated: 7000  inst.: 1896096 (ipc=270.9) sim_rate=158008 (inst/sec) elapsed = 0:0:00:12 / Wed May  1 12:44:00 2019
GPGPU-Sim PTX: 2100000 instructions simulated : ctaid=(19,0,0) tid=(127,0,0)
GPGPU-Sim PTX: 2200000 instructions simulated : ctaid=(21,0,0) tid=(63,0,0)
GPGPU-Sim PTX: 2300000 instructions simulated : ctaid=(29,0,0) tid=(31,0,0)
GPGPU-Sim PTX: 2400000 instructions simulated : ctaid=(37,0,0) tid=(191,0,0)
GPGPU-Sim uArch: cycles simulated: 8500  inst.: 2293024 (ipc=269.8) sim_rate=176386 (inst/sec) elapsed = 0:0:00:13 / Wed May  1 12:44:01 2019
GPGPU-Sim PTX: 2500000 instructions simulated : ctaid=(42,0,0) tid=(223,0,0)
GPGPU-Sim PTX: 2600000 instructions simulated : ctaid=(36,0,0) tid=(255,0,0)
GPGPU-Sim PTX: 2700000 instructions simulated : ctaid=(47,0,0) tid=(223,0,0)
GPGPU-Sim uArch: cycles simulated: 10000  inst.: 2655712 (ipc=265.6) sim_rate=189693 (inst/sec) elapsed = 0:0:00:14 / Wed May  1 12:44:02 2019
GPGPU-Sim PTX: 2800000 instructions simulated : ctaid=(33,0,0) tid=(31,0,0)
GPGPU-Sim PTX: 2900000 instructions simulated : ctaid=(63,0,0) tid=(31,0,0)
GPGPU-Sim PTX: 3000000 instructions simulated : ctaid=(22,0,0) tid=(159,0,0)
GPGPU-Sim PTX: 3100000 instructions simulated : ctaid=(7,0,0) tid=(223,0,0)
GPGPU-Sim uArch: cycles simulated: 11500  inst.: 3030944 (ipc=263.6) sim_rate=202062 (inst/sec) elapsed = 0:0:00:15 / Wed May  1 12:44:03 2019
GPGPU-Sim PTX: 3200000 instructions simulated : ctaid=(58,0,0) tid=(223,0,0)
GPGPU-Sim PTX: 3300000 instructions simulated : ctaid=(50,0,0) tid=(63,0,0)
GPGPU-Sim uArch: cycles simulated: 12000  inst.: 3147552 (ipc=262.3) sim_rate=196722 (inst/sec) elapsed = 0:0:00:16 / Wed May  1 12:44:04 2019
GPGPU-Sim PTX: 3400000 instructions simulated : ctaid=(71,0,0) tid=(31,0,0)
GPGPU-Sim uArch: cycles simulated: 12500  inst.: 3258656 (ipc=260.7) sim_rate=191685 (inst/sec) elapsed = 0:0:00:17 / Wed May  1 12:44:05 2019
GPGPU-Sim PTX: 3500000 instructions simulated : ctaid=(19,0,0) tid=(191,0,0)
GPGPU-Sim PTX: 3600000 instructions simulated : ctaid=(1,0,0) tid=(127,0,0)
GPGPU-Sim uArch: cycles simulated: 13500  inst.: 3497216 (ipc=259.1) sim_rate=194289 (inst/sec) elapsed = 0:0:00:18 / Wed May  1 12:44:06 2019
GPGPU-Sim PTX: 3700000 instructions simulated : ctaid=(40,0,0) tid=(31,0,0)
GPGPU-Sim PTX: 3800000 instructions simulated : ctaid=(38,0,0) tid=(191,0,0)
GPGPU-Sim uArch: cycles simulated: 14000  inst.: 3628864 (ipc=259.2) sim_rate=190992 (inst/sec) elapsed = 0:0:00:19 / Wed May  1 12:44:07 2019
GPGPU-Sim PTX: 3900000 instructions simulated : ctaid=(33,0,0) tid=(127,0,0)
GPGPU-Sim uArch: cycles simulated: 14500  inst.: 3784576 (ipc=261.0) sim_rate=189228 (inst/sec) elapsed = 0:0:00:20 / Wed May  1 12:44:08 2019
GPGPU-Sim PTX: 4000000 instructions simulated : ctaid=(47,0,0) tid=(95,0,0)
GPGPU-Sim PTX: 4100000 instructions simulated : ctaid=(4,0,0) tid=(255,0,0)
GPGPU-Sim PTX: 4200000 instructions simulated : ctaid=(11,0,0) tid=(127,0,0)
GPGPU-Sim uArch: cycles simulated: 15000  inst.: 4018816 (ipc=267.9) sim_rate=191372 (inst/sec) elapsed = 0:0:00:21 / Wed May  1 12:44:09 2019
GPGPU-Sim PTX: 4300000 instructions simulated : ctaid=(11,0,0) tid=(159,0,0)
GPGPU-Sim PTX: 4400000 instructions simulated : ctaid=(69,0,0) tid=(15,0,0)
GPGPU-Sim uArch: cycles simulated: 15500  inst.: 4254304 (ipc=274.5) sim_rate=184969 (inst/sec) elapsed = 0:0:00:23 / Wed May  1 12:44:11 2019
GPGPU-Sim PTX: 4500000 instructions simulated : ctaid=(6,0,0) tid=(223,0,0)
GPGPU-Sim PTX: 4600000 instructions simulated : ctaid=(12,0,0) tid=(115,0,0)
GPGPU-Sim PTX: 4700000 instructions simulated : ctaid=(57,0,0) tid=(89,0,0)
GPGPU-Sim uArch: cycles simulated: 16000  inst.: 4476348 (ipc=279.8) sim_rate=186514 (inst/sec) elapsed = 0:0:00:24 / Wed May  1 12:44:12 2019
GPGPU-Sim PTX: 4800000 instructions simulated : ctaid=(57,0,0) tid=(146,0,0)
GPGPU-Sim PTX: 4900000 instructions simulated : ctaid=(68,0,0) tid=(169,0,0)
GPGPU-Sim uArch: cycles simulated: 16500  inst.: 4742612 (ipc=287.4) sim_rate=189704 (inst/sec) elapsed = 0:0:00:25 / Wed May  1 12:44:13 2019
GPGPU-Sim PTX: 5000000 instructions simulated : ctaid=(12,0,0) tid=(68,0,0)
GPGPU-Sim PTX: 5100000 instructions simulated : ctaid=(20,0,0) tid=(168,0,0)
GPGPU-Sim PTX: 5200000 instructions simulated : ctaid=(11,0,0) tid=(148,0,0)
GPGPU-Sim uArch: cycles simulated: 17000  inst.: 5001649 (ipc=294.2) sim_rate=192371 (inst/sec) elapsed = 0:0:00:26 / Wed May  1 12:44:14 2019
GPGPU-Sim PTX: 5300000 instructions simulated : ctaid=(29,0,0) tid=(204,0,0)
GPGPU-Sim PTX: 5400000 instructions simulated : ctaid=(6,0,0) tid=(212,0,0)
GPGPU-Sim PTX: 5500000 instructions simulated : ctaid=(11,0,0) tid=(73,0,0)
GPGPU-Sim PTX: 5600000 instructions simulated : ctaid=(9,0,0) tid=(168,0,0)
GPGPU-Sim PTX: 5700000 instructions simulated : ctaid=(67,0,0) tid=(84,0,0)
GPGPU-Sim uArch: cycles simulated: 18000  inst.: 5504918 (ipc=305.8) sim_rate=203885 (inst/sec) elapsed = 0:0:00:27 / Wed May  1 12:44:15 2019
GPGPU-Sim PTX: 5800000 instructions simulated : ctaid=(26,0,0) tid=(166,0,0)
GPGPU-Sim PTX: 5900000 instructions simulated : ctaid=(25,0,0) tid=(5,0,0)
GPGPU-Sim PTX: 6000000 instructions simulated : ctaid=(21,0,0) tid=(7,0,0)
GPGPU-Sim PTX: 6100000 instructions simulated : ctaid=(0,0,0) tid=(17,0,0)
GPGPU-Sim PTX: 6200000 instructions simulated : ctaid=(17,0,0) tid=(135,0,0)
GPGPU-Sim uArch: cycles simulated: 19000  inst.: 5913148 (ipc=311.2) sim_rate=211183 (inst/sec) elapsed = 0:0:00:28 / Wed May  1 12:44:16 2019
GPGPU-Sim PTX: 6300000 instructions simulated : ctaid=(22,0,0) tid=(28,0,0)
GPGPU-Sim PTX: 6400000 instructions simulated : ctaid=(9,0,0) tid=(235,0,0)
GPGPU-Sim PTX: 6500000 instructions simulated : ctaid=(5,0,0) tid=(122,0,0)
GPGPU-Sim PTX: 6600000 instructions simulated : ctaid=(28,0,0) tid=(216,0,0)
GPGPU-Sim PTX: 6700000 instructions simulated : ctaid=(61,0,0) tid=(96,0,0)
GPGPU-Sim uArch: cycles simulated: 20500  inst.: 6452578 (ipc=314.8) sim_rate=222502 (inst/sec) elapsed = 0:0:00:29 / Wed May  1 12:44:17 2019
GPGPU-Sim PTX: 6800000 instructions simulated : ctaid=(26,0,0) tid=(206,0,0)
GPGPU-Sim PTX: 6900000 instructions simulated : ctaid=(29,0,0) tid=(35,0,0)
GPGPU-Sim PTX: 7000000 instructions simulated : ctaid=(2,0,0) tid=(3,0,0)
GPGPU-Sim PTX: 7100000 instructions simulated : ctaid=(43,0,0) tid=(131,0,0)
GPGPU-Sim uArch: cycles simulated: 21500  inst.: 6804890 (ipc=316.5) sim_rate=226829 (inst/sec) elapsed = 0:0:00:30 / Wed May  1 12:44:18 2019
GPGPU-Sim PTX: 7200000 instructions simulated : ctaid=(43,0,0) tid=(163,0,0)
GPGPU-Sim PTX: 7300000 instructions simulated : ctaid=(24,0,0) tid=(131,0,0)
GPGPU-Sim PTX: 7400000 instructions simulated : ctaid=(23,0,0) tid=(163,0,0)
GPGPU-Sim PTX: 7500000 instructions simulated : ctaid=(40,0,0) tid=(131,0,0)
GPGPU-Sim uArch: cycles simulated: 22500  inst.: 7206334 (ipc=320.3) sim_rate=232462 (inst/sec) elapsed = 0:0:00:31 / Wed May  1 12:44:19 2019
GPGPU-Sim PTX: 7600000 instructions simulated : ctaid=(67,0,0) tid=(127,0,0)
GPGPU-Sim PTX: 7700000 instructions simulated : ctaid=(31,0,0) tid=(99,0,0)
GPGPU-Sim uArch: cycles simulated: 23000  inst.: 7408026 (ipc=322.1) sim_rate=231500 (inst/sec) elapsed = 0:0:00:32 / Wed May  1 12:44:20 2019
GPGPU-Sim PTX: 7800000 instructions simulated : ctaid=(35,0,0) tid=(200,0,0)
GPGPU-Sim PTX: 7900000 instructions simulated : ctaid=(52,0,0) tid=(183,0,0)
GPGPU-Sim uArch: cycles simulated: 23500  inst.: 7609803 (ipc=323.8) sim_rate=223817 (inst/sec) elapsed = 0:0:00:34 / Wed May  1 12:44:22 2019
GPGPU-Sim PTX: 8000000 instructions simulated : ctaid=(18,0,0) tid=(98,0,0)
GPGPU-Sim PTX: 8100000 instructions simulated : ctaid=(33,0,0) tid=(108,0,0)
GPGPU-Sim uArch: cycles simulated: 24000  inst.: 7806256 (ipc=325.3) sim_rate=223035 (inst/sec) elapsed = 0:0:00:35 / Wed May  1 12:44:23 2019
GPGPU-Sim PTX: 8200000 instructions simulated : ctaid=(41,0,0) tid=(100,0,0)
GPGPU-Sim PTX: 8300000 instructions simulated : ctaid=(36,0,0) tid=(121,0,0)
GPGPU-Sim uArch: cycles simulated: 24500  inst.: 7988140 (ipc=326.0) sim_rate=221892 (inst/sec) elapsed = 0:0:00:36 / Wed May  1 12:44:24 2019
GPGPU-Sim PTX: 8400000 instructions simulated : ctaid=(1,0,0) tid=(225,0,0)
GPGPU-Sim PTX: 8500000 instructions simulated : ctaid=(62,0,0) tid=(50,0,0)
GPGPU-Sim uArch: cycles simulated: 25000  inst.: 8144615 (ipc=325.8) sim_rate=220124 (inst/sec) elapsed = 0:0:00:37 / Wed May  1 12:44:25 2019
GPGPU-Sim PTX: 8600000 instructions simulated : ctaid=(4,0,0) tid=(12,0,0)
GPGPU-Sim uArch: cycles simulated: 25500  inst.: 8299117 (ipc=325.5) sim_rate=218397 (inst/sec) elapsed = 0:0:00:38 / Wed May  1 12:44:26 2019
GPGPU-Sim PTX: 8700000 instructions simulated : ctaid=(46,0,0) tid=(97,0,0)
GPGPU-Sim PTX: 8800000 instructions simulated : ctaid=(25,0,0) tid=(245,0,0)
GPGPU-Sim uArch: cycles simulated: 26000  inst.: 8439031 (ipc=324.6) sim_rate=216385 (inst/sec) elapsed = 0:0:00:39 / Wed May  1 12:44:27 2019
GPGPU-Sim PTX: 8900000 instructions simulated : ctaid=(24,0,0) tid=(117,0,0)
GPGPU-Sim PTX: 9000000 instructions simulated : ctaid=(50,0,0) tid=(53,0,0)
GPGPU-Sim uArch: cycles simulated: 26500  inst.: 8592503 (ipc=324.2) sim_rate=214812 (inst/sec) elapsed = 0:0:00:40 / Wed May  1 12:44:28 2019
GPGPU-Sim PTX: 9100000 instructions simulated : ctaid=(46,0,0) tid=(21,0,0)
GPGPU-Sim PTX: 9200000 instructions simulated : ctaid=(54,0,0) tid=(37,0,0)
GPGPU-Sim uArch: cycles simulated: 27000  inst.: 8784455 (ipc=325.4) sim_rate=214255 (inst/sec) elapsed = 0:0:00:41 / Wed May  1 12:44:29 2019
GPGPU-Sim PTX: 9300000 instructions simulated : ctaid=(45,0,0) tid=(21,0,0)
GPGPU-Sim PTX: 9400000 instructions simulated : ctaid=(33,0,0) tid=(105,0,0)
GPGPU-Sim PTX: 9500000 instructions simulated : ctaid=(31,0,0) tid=(135,0,0)
GPGPU-Sim PTX: 9600000 instructions simulated : ctaid=(71,0,0) tid=(243,0,0)
GPGPU-Sim uArch: cycles simulated: 28000  inst.: 9249031 (ipc=330.3) sim_rate=220215 (inst/sec) elapsed = 0:0:00:42 / Wed May  1 12:44:30 2019
GPGPU-Sim PTX: 9700000 instructions simulated : ctaid=(46,0,0) tid=(199,0,0)
GPGPU-Sim PTX: 9800000 instructions simulated : ctaid=(53,0,0) tid=(253,0,0)
GPGPU-Sim PTX: 9900000 instructions simulated : ctaid=(15,0,0) tid=(204,0,0)
GPGPU-Sim PTX: 10000000 instructions simulated : ctaid=(20,0,0) tid=(239,0,0)
GPGPU-Sim PTX: 10100000 instructions simulated : ctaid=(42,0,0) tid=(90,0,0)
GPGPU-Sim uArch: Shader 10 finished CTA #0 (28773,0), 5 CTAs running
GPGPU-Sim uArch: core: 10, cta: 0 initialized @(28774,0)
GPGPU-Sim PTX: 10200000 instructions simulated : ctaid=(16,0,0) tid=(55,0,0)
GPGPU-Sim PTX: 10300000 instructions simulated : ctaid=(3,0,0) tid=(215,0,0)
GPGPU-Sim PTX: 10400000 instructions simulated : ctaid=(49,0,0) tid=(56,0,0)
GPGPU-Sim uArch: Shader 2 finished CTA #0 (29456,0), 5 CTAs running
GPGPU-Sim uArch: core:  2, cta: 0 initialized @(29457,0)
GPGPU-Sim uArch: Shader 6 finished CTA #0 (29494,0), 5 CTAs running
GPGPU-Sim uArch: core:  6, cta: 0 initialized @(29495,0)
GPGPU-Sim uArch: cycles simulated: 29500  inst.: 9998761 (ipc=338.9) sim_rate=232529 (inst/sec) elapsed = 0:0:00:43 / Wed May  1 12:44:31 2019
GPGPU-Sim PTX: 10500000 instructions simulated : ctaid=(52,0,0) tid=(215,0,0)
GPGPU-Sim PTX: 10600000 instructions simulated : ctaid=(59,0,0) tid=(201,0,0)
GPGPU-Sim uArch: Shader 7 finished CTA #0 (29784,0), 5 CTAs running
GPGPU-Sim uArch: core:  7, cta: 0 initialized @(29785,0)
GPGPU-Sim uArch: Shader 14 finished CTA #0 (29810,0), 5 CTAs running
GPGPU-Sim uArch: core: 14, cta: 0 initialized @(29811,0)
GPGPU-Sim uArch: Shader 5 finished CTA #0 (29816,0), 5 CTAs running
GPGPU-Sim uArch: core:  5, cta: 0 initialized @(29817,0)
GPGPU-Sim PTX: 10700000 instructions simulated : ctaid=(10,0,0) tid=(44,0,0)
GPGPU-Sim uArch: cycles simulated: 30000  inst.: 10276651 (ipc=342.6) sim_rate=233560 (inst/sec) elapsed = 0:0:00:44 / Wed May  1 12:44:32 2019
GPGPU-Sim PTX: 10800000 instructions simulated : ctaid=(44,0,0) tid=(32,0,0)
GPGPU-Sim uArch: Shader 11 finished CTA #0 (30186,0), 5 CTAs running
GPGPU-Sim uArch: core: 11, cta: 0 initialized @(30187,0)
GPGPU-Sim PTX: 10900000 instructions simulated : ctaid=(41,0,0) tid=(99,0,0)
GPGPU-Sim uArch: Shader 4 finished CTA #0 (30229,0), 5 CTAs running
GPGPU-Sim uArch: core:  4, cta: 0 initialized @(30230,0)
GPGPU-Sim uArch: Shader 9 finished CTA #0 (30306,0), 5 CTAs running
GPGPU-Sim uArch: core:  9, cta: 0 initialized @(30307,0)
GPGPU-Sim PTX: 11000000 instructions simulated : ctaid=(42,0,0) tid=(174,0,0)
GPGPU-Sim uArch: Shader 8 finished CTA #0 (30363,0), 5 CTAs running
GPGPU-Sim uArch: core:  8, cta: 0 initialized @(30364,0)
GPGPU-Sim PTX: 11100000 instructions simulated : ctaid=(49,0,0) tid=(65,0,0)
GPGPU-Sim PTX: 11200000 instructions simulated : ctaid=(24,0,0) tid=(37,0,0)
GPGPU-Sim PTX: 11300000 instructions simulated : ctaid=(62,0,0) tid=(175,0,0)
GPGPU-Sim uArch: Shader 1 finished CTA #0 (30889,0), 5 CTAs running
GPGPU-Sim uArch: core:  1, cta: 0 initialized @(30890,0)
GPGPU-Sim uArch: Shader 0 finished CTA #0 (30920,0), 5 CTAs running
GPGPU-Sim uArch: core:  0, cta: 0 initialized @(30921,0)
GPGPU-Sim PTX: 11400000 instructions simulated : ctaid=(23,0,0) tid=(180,0,0)
GPGPU-Sim uArch: cycles simulated: 31000  inst.: 10883646 (ipc=351.1) sim_rate=241858 (inst/sec) elapsed = 0:0:00:45 / Wed May  1 12:44:33 2019
GPGPU-Sim PTX: 11500000 instructions simulated : ctaid=(73,0,0) tid=(37,0,0)
GPGPU-Sim PTX: 11600000 instructions simulated : ctaid=(71,0,0) tid=(57,0,0)
GPGPU-Sim uArch: Shader 12 finished CTA #0 (31424,0), 5 CTAs running
GPGPU-Sim uArch: core: 12, cta: 0 initialized @(31425,0)
GPGPU-Sim PTX: 11700000 instructions simulated : ctaid=(29,0,0) tid=(129,0,0)
GPGPU-Sim uArch: Shader 3 finished CTA #0 (31463,0), 5 CTAs running
GPGPU-Sim uArch: core:  3, cta: 0 initialized @(31464,0)
GPGPU-Sim uArch: cycles simulated: 31500  inst.: 11181457 (ipc=355.0) sim_rate=237903 (inst/sec) elapsed = 0:0:00:47 / Wed May  1 12:44:35 2019
GPGPU-Sim uArch: Shader 5 finished CTA #1 (31517,0), 5 CTAs running
GPGPU-Sim uArch: core:  5, cta: 1 initialized @(31518,0)
GPGPU-Sim uArch: Shader 2 finished CTA #1 (31560,0), 5 CTAs running
GPGPU-Sim uArch: core:  2, cta: 1 initialized @(31561,0)
GPGPU-Sim PTX: 11800000 instructions simulated : ctaid=(38,0,0) tid=(22,0,0)
GPGPU-Sim PTX: 11900000 instructions simulated : ctaid=(46,0,0) tid=(253,0,0)
GPGPU-Sim PTX: 12000000 instructions simulated : ctaid=(44,0,0) tid=(186,0,0)
GPGPU-Sim uArch: cycles simulated: 32000  inst.: 11445082 (ipc=357.7) sim_rate=238439 (inst/sec) elapsed = 0:0:00:48 / Wed May  1 12:44:36 2019
GPGPU-Sim PTX: 12100000 instructions simulated : ctaid=(94,0,0) tid=(30,0,0)
GPGPU-Sim uArch: Shader 13 finished CTA #0 (32307,0), 5 CTAs running
GPGPU-Sim uArch: core: 13, cta: 0 initialized @(32308,0)
GPGPU-Sim uArch: Shader 4 finished CTA #1 (32349,0), 5 CTAs running
GPGPU-Sim uArch: core:  4, cta: 1 initialized @(32350,0)
GPGPU-Sim uArch: Shader 7 finished CTA #1 (32351,0), 5 CTAs running
GPGPU-Sim uArch: core:  7, cta: 1 initialized @(32352,0)
GPGPU-Sim PTX: 12200000 instructions simulated : ctaid=(23,0,0) tid=(209,0,0)
GPGPU-Sim uArch: cycles simulated: 32500  inst.: 11700962 (ipc=360.0) sim_rate=238795 (inst/sec) elapsed = 0:0:00:49 / Wed May  1 12:44:37 2019
GPGPU-Sim PTX: 12300000 instructions simulated : ctaid=(66,0,0) tid=(40,0,0)
GPGPU-Sim PTX: 12400000 instructions simulated : ctaid=(108,0,0) tid=(104,0,0)
GPGPU-Sim uArch: Shader 8 finished CTA #1 (32867,0), 5 CTAs running
GPGPU-Sim uArch: core:  8, cta: 1 initialized @(32868,0)
GPGPU-Sim uArch: Shader 14 finished CTA #1 (32869,0), 5 CTAs running
GPGPU-Sim uArch: core: 14, cta: 1 initialized @(32870,0)
GPGPU-Sim PTX: 12500000 instructions simulated : ctaid=(70,0,0) tid=(7,0,0)
GPGPU-Sim uArch: Shader 6 finished CTA #1 (32945,0), 5 CTAs running
GPGPU-Sim uArch: core:  6, cta: 1 initialized @(32946,0)
GPGPU-Sim uArch: Shader 3 finished CTA #1 (32971,0), 5 CTAs running
GPGPU-Sim uArch: core:  3, cta: 1 initialized @(32972,0)
GPGPU-Sim uArch: cycles simulated: 33000  inst.: 11960460 (ipc=362.4) sim_rate=239209 (inst/sec) elapsed = 0:0:00:50 / Wed May  1 12:44:38 2019
GPGPU-Sim PTX: 12600000 instructions simulated : ctaid=(27,0,0) tid=(165,0,0)
GPGPU-Sim uArch: Shader 10 finished CTA #1 (33151,0), 5 CTAs running
GPGPU-Sim uArch: core: 10, cta: 1 initialized @(33152,0)
GPGPU-Sim uArch: Shader 1 finished CTA #1 (33199,0), 5 CTAs running
GPGPU-Sim uArch: core:  1, cta: 1 initialized @(33200,0)
GPGPU-Sim uArch: Shader 11 finished CTA #1 (33283,0), 5 CTAs running
GPGPU-Sim uArch: core: 11, cta: 1 initialized @(33284,0)
GPGPU-Sim uArch: Shader 12 finished CTA #1 (33309,0), 5 CTAs running
GPGPU-Sim uArch: core: 12, cta: 1 initialized @(33310,0)
GPGPU-Sim PTX: 12700000 instructions simulated : ctaid=(80,0,0) tid=(251,0,0)
GPGPU-Sim uArch: cycles simulated: 33500  inst.: 12194192 (ipc=364.0) sim_rate=234503 (inst/sec) elapsed = 0:0:00:52 / Wed May  1 12:44:40 2019
GPGPU-Sim PTX: 12800000 instructions simulated : ctaid=(113,0,0) tid=(24,0,0)
GPGPU-Sim PTX: 12900000 instructions simulated : ctaid=(106,0,0) tid=(67,0,0)
GPGPU-Sim PTX: 13000000 instructions simulated : ctaid=(37,0,0) tid=(157,0,0)
GPGPU-Sim uArch: Shader 9 finished CTA #1 (33978,0), 5 CTAs running
GPGPU-Sim uArch: core:  9, cta: 1 initialized @(33979,0)
GPGPU-Sim uArch: cycles simulated: 34000  inst.: 12417463 (ipc=365.2) sim_rate=229953 (inst/sec) elapsed = 0:0:00:54 / Wed May  1 12:44:42 2019
GPGPU-Sim uArch: Shader 0 finished CTA #1 (34057,0), 5 CTAs running
GPGPU-Sim uArch: core:  0, cta: 1 initialized @(34058,0)
GPGPU-Sim PTX: 13100000 instructions simulated : ctaid=(70,0,0) tid=(100,0,0)
GPGPU-Sim PTX: 13200000 instructions simulated : ctaid=(98,0,0) tid=(165,0,0)
GPGPU-Sim uArch: cycles simulated: 34500  inst.: 12650514 (ipc=366.7) sim_rate=230009 (inst/sec) elapsed = 0:0:00:55 / Wed May  1 12:44:43 2019
GPGPU-Sim PTX: 13300000 instructions simulated : ctaid=(118,0,0) tid=(208,0,0)
GPGPU-Sim PTX: 13400000 instructions simulated : ctaid=(52,0,0) tid=(105,0,0)
GPGPU-Sim PTX: 13500000 instructions simulated : ctaid=(39,0,0) tid=(127,0,0)
GPGPU-Sim uArch: cycles simulated: 35000  inst.: 12896293 (ipc=368.5) sim_rate=230290 (inst/sec) elapsed = 0:0:00:56 / Wed May  1 12:44:44 2019
GPGPU-Sim uArch: Shader 13 finished CTA #1 (35037,0), 5 CTAs running
GPGPU-Sim uArch: core: 13, cta: 1 initialized @(35038,0)
GPGPU-Sim PTX: 13600000 instructions simulated : ctaid=(74,0,0) tid=(62,0,0)
GPGPU-Sim PTX: 13700000 instructions simulated : ctaid=(91,0,0) tid=(197,0,0)
GPGPU-Sim uArch: cycles simulated: 35500  inst.: 13144487 (ipc=370.3) sim_rate=230605 (inst/sec) elapsed = 0:0:00:57 / Wed May  1 12:44:45 2019
GPGPU-Sim PTX: 13800000 instructions simulated : ctaid=(75,0,0) tid=(97,0,0)
GPGPU-Sim PTX: 13900000 instructions simulated : ctaid=(39,0,0) tid=(0,0,0)
GPGPU-Sim PTX: 14000000 instructions simulated : ctaid=(104,0,0) tid=(127,0,0)
GPGPU-Sim uArch: cycles simulated: 36000  inst.: 13359307 (ipc=371.1) sim_rate=230332 (inst/sec) elapsed = 0:0:00:58 / Wed May  1 12:44:46 2019
GPGPU-Sim PTX: 14100000 instructions simulated : ctaid=(84,0,0) tid=(250,0,0)
GPGPU-Sim PTX: 14200000 instructions simulated : ctaid=(58,0,0) tid=(28,0,0)
GPGPU-Sim PTX: 14300000 instructions simulated : ctaid=(82,0,0) tid=(184,0,0)
GPGPU-Sim PTX: 14400000 instructions simulated : ctaid=(84,0,0) tid=(227,0,0)
GPGPU-Sim uArch: cycles simulated: 37000  inst.: 13810909 (ipc=373.3) sim_rate=234083 (inst/sec) elapsed = 0:0:00:59 / Wed May  1 12:44:47 2019
GPGPU-Sim uArch: Shader 6 finished CTA #2 (37026,0), 5 CTAs running
GPGPU-Sim uArch: core:  6, cta: 2 initialized @(37027,0)
GPGPU-Sim PTX: 14500000 instructions simulated : ctaid=(52,0,0) tid=(147,0,0)
GPGPU-Sim uArch: Shader 10 finished CTA #2 (37111,0), 5 CTAs running
GPGPU-Sim uArch: core: 10, cta: 2 initialized @(37112,0)
GPGPU-Sim uArch: Shader 14 finished CTA #2 (37112,0), 5 CTAs running
GPGPU-Sim uArch: core: 14, cta: 2 initialized @(37113,0)
GPGPU-Sim uArch: Shader 11 finished CTA #2 (37243,0), 5 CTAs running
GPGPU-Sim uArch: core: 11, cta: 2 initialized @(37244,0)
GPGPU-Sim PTX: 14600000 instructions simulated : ctaid=(65,0,0) tid=(135,0,0)
GPGPU-Sim uArch: Shader 8 finished CTA #2 (37387,0), 5 CTAs running
GPGPU-Sim uArch: core:  8, cta: 2 initialized @(37388,0)
GPGPU-Sim PTX: 14700000 instructions simulated : ctaid=(42,0,0) tid=(35,0,0)
GPGPU-Sim uArch: Shader 2 finished CTA #2 (37510,0), 5 CTAs running
GPGPU-Sim uArch: core:  2, cta: 2 initialized @(37511,0)
GPGPU-Sim PTX: 14800000 instructions simulated : ctaid=(69,0,0) tid=(247,0,0)
GPGPU-Sim PTX: 14900000 instructions simulated : ctaid=(81,0,0) tid=(246,0,0)
GPGPU-Sim uArch: Shader 4 finished CTA #2 (37998,0), 5 CTAs running
GPGPU-Sim uArch: core:  4, cta: 2 initialized @(37999,0)
GPGPU-Sim uArch: cycles simulated: 38000  inst.: 14271146 (ipc=375.6) sim_rate=237852 (inst/sec) elapsed = 0:0:01:00 / Wed May  1 12:44:48 2019
GPGPU-Sim PTX: 15000000 instructions simulated : ctaid=(46,0,0) tid=(85,0,0)
GPGPU-Sim uArch: Shader 5 finished CTA #2 (38142,0), 5 CTAs running
GPGPU-Sim uArch: core:  5, cta: 2 initialized @(38143,0)
GPGPU-Sim PTX: 15100000 instructions simulated : ctaid=(75,0,0) tid=(50,0,0)
GPGPU-Sim uArch: Shader 3 finished CTA #2 (38322,0), 5 CTAs running
GPGPU-Sim PTX: 15200000 instructions simulated : ctaid=(106,0,0) tid=(183,0,0)
GPGPU-Sim PTX: 15300000 instructions simulated : ctaid=(105,0,0) tid=(239,0,0)
GPGPU-Sim uArch: Shader 1 finished CTA #2 (38768,0), 5 CTAs running
GPGPU-Sim PTX: 15400000 instructions simulated : ctaid=(76,0,0) tid=(185,0,0)
GPGPU-Sim uArch: cycles simulated: 39000  inst.: 14745997 (ipc=378.1) sim_rate=241737 (inst/sec) elapsed = 0:0:01:01 / Wed May  1 12:44:49 2019
GPGPU-Sim uArch: Shader 0 finished CTA #2 (39047,0), 5 CTAs running
GPGPU-Sim PTX: 15500000 instructions simulated : ctaid=(53,0,0) tid=(52,0,0)
GPGPU-Sim PTX: 15600000 instructions simulated : ctaid=(47,0,0) tid=(107,0,0)
GPGPU-Sim PTX: 15700000 instructions simulated : ctaid=(60,0,0) tid=(71,0,0)
GPGPU-Sim uArch: cycles simulated: 39500  inst.: 14978529 (ipc=379.2) sim_rate=241589 (inst/sec) elapsed = 0:0:01:02 / Wed May  1 12:44:50 2019
GPGPU-Sim PTX: 15800000 instructions simulated : ctaid=(106,0,0) tid=(93,0,0)
GPGPU-Sim PTX: 15900000 instructions simulated : ctaid=(82,0,0) tid=(156,0,0)
GPGPU-Sim uArch: cycles simulated: 40000  inst.: 15219153 (ipc=380.5) sim_rate=241573 (inst/sec) elapsed = 0:0:01:03 / Wed May  1 12:44:51 2019
GPGPU-Sim PTX: 16000000 instructions simulated : ctaid=(70,0,0) tid=(164,0,0)
GPGPU-Sim uArch: Shader 12 finished CTA #2 (40088,0), 5 CTAs running
GPGPU-Sim uArch: Shader 13 finished CTA #2 (40256,0), 5 CTAs running
GPGPU-Sim PTX: 16100000 instructions simulated : ctaid=(67,0,0) tid=(32,0,0)
GPGPU-Sim PTX: 16200000 instructions simulated : ctaid=(50,0,0) tid=(135,0,0)
GPGPU-Sim uArch: cycles simulated: 40500  inst.: 15454000 (ipc=381.6) sim_rate=241468 (inst/sec) elapsed = 0:0:01:04 / Wed May  1 12:44:52 2019
GPGPU-Sim uArch: Shader 7 finished CTA #2 (40507,0), 5 CTAs running
GPGPU-Sim PTX: 16300000 instructions simulated : ctaid=(75,0,0) tid=(151,0,0)
GPGPU-Sim PTX: 16400000 instructions simulated : ctaid=(48,0,0) tid=(21,0,0)
GPGPU-Sim uArch: cycles simulated: 41000  inst.: 15674345 (ipc=382.3) sim_rate=241143 (inst/sec) elapsed = 0:0:01:05 / Wed May  1 12:44:53 2019
GPGPU-Sim uArch: Shader 10 finished CTA #3 (41029,0), 5 CTAs running
GPGPU-Sim uArch: Shader 14 finished CTA #3 (41035,0), 5 CTAs running
GPGPU-Sim uArch: Shader 9 finished CTA #2 (41172,0), 5 CTAs running
GPGPU-Sim PTX: 16500000 instructions simulated : ctaid=(109,0,0) tid=(210,0,0)
GPGPU-Sim PTX: 16600000 instructions simulated : ctaid=(48,0,0) tid=(106,0,0)
GPGPU-Sim uArch: cycles simulated: 41500  inst.: 15831881 (ipc=381.5) sim_rate=239876 (inst/sec) elapsed = 0:0:01:06 / Wed May  1 12:44:54 2019
GPGPU-Sim PTX: 16700000 instructions simulated : ctaid=(81,0,0) tid=(176,0,0)
GPGPU-Sim uArch: Shader 2 finished CTA #3 (41775,0), 5 CTAs running
GPGPU-Sim uArch: cycles simulated: 42000  inst.: 16006063 (ipc=381.1) sim_rate=238896 (inst/sec) elapsed = 0:0:01:07 / Wed May  1 12:44:55 2019
GPGPU-Sim PTX: 16800000 instructions simulated : ctaid=(106,0,0) tid=(23,0,0)
GPGPU-Sim uArch: Shader 11 finished CTA #3 (42178,0), 5 CTAs running
GPGPU-Sim uArch: Shader 6 finished CTA #3 (42232,0), 5 CTAs running
GPGPU-Sim PTX: 16900000 instructions simulated : ctaid=(82,0,0) tid=(88,0,0)
GPGPU-Sim uArch: cycles simulated: 42500  inst.: 16154208 (ipc=380.1) sim_rate=237561 (inst/sec) elapsed = 0:0:01:08 / Wed May  1 12:44:56 2019
GPGPU-Sim PTX: 17000000 instructions simulated : ctaid=(114,0,0) tid=(28,0,0)
GPGPU-Sim uArch: Shader 1 finished CTA #3 (42880,0), 4 CTAs running
GPGPU-Sim PTX: 17100000 instructions simulated : ctaid=(118,0,0) tid=(129,0,0)
GPGPU-Sim uArch: cycles simulated: 43000  inst.: 16340292 (ipc=380.0) sim_rate=236815 (inst/sec) elapsed = 0:0:01:09 / Wed May  1 12:44:57 2019
GPGPU-Sim PTX: 17200000 instructions simulated : ctaid=(89,0,0) tid=(219,0,0)
GPGPU-Sim uArch: Shader 8 finished CTA #3 (43485,0), 5 CTAs running
GPGPU-Sim uArch: cycles simulated: 43500  inst.: 16492593 (ipc=379.1) sim_rate=235608 (inst/sec) elapsed = 0:0:01:10 / Wed May  1 12:44:58 2019
GPGPU-Sim PTX: 17300000 instructions simulated : ctaid=(56,0,0) tid=(121,0,0)
GPGPU-Sim uArch: Shader 4 finished CTA #3 (43729,0), 5 CTAs running
GPGPU-Sim uArch: Shader 0 finished CTA #3 (43793,0), 4 CTAs running
GPGPU-Sim PTX: 17400000 instructions simulated : ctaid=(65,0,0) tid=(97,0,0)
GPGPU-Sim uArch: Shader 5 finished CTA #3 (44028,0), 5 CTAs running
GPGPU-Sim PTX: 17500000 instructions simulated : ctaid=(64,0,0) tid=(9,0,0)
GPGPU-Sim uArch: cycles simulated: 44500  inst.: 16780445 (ipc=377.1) sim_rate=236344 (inst/sec) elapsed = 0:0:01:11 / Wed May  1 12:44:59 2019
GPGPU-Sim PTX: 17600000 instructions simulated : ctaid=(71,0,0) tid=(177,0,0)
GPGPU-Sim PTX: 17700000 instructions simulated : ctaid=(53,0,0) tid=(8,0,0)
GPGPU-Sim PTX: 17800000 instructions simulated : ctaid=(103,0,0) tid=(125,0,0)
GPGPU-Sim PTX: 17900000 instructions simulated : ctaid=(57,0,0) tid=(131,0,0)
GPGPU-Sim uArch: Shader 7 finished CTA #3 (45368,0), 4 CTAs running
GPGPU-Sim uArch: cycles simulated: 45500  inst.: 17115205 (ipc=376.2) sim_rate=237711 (inst/sec) elapsed = 0:0:01:12 / Wed May  1 12:45:00 2019
GPGPU-Sim PTX: 18000000 instructions simulated : ctaid=(114,0,0) tid=(207,0,0)
GPGPU-Sim uArch: Shader 12 finished CTA #3 (45694,0), 4 CTAs running
GPGPU-Sim PTX: 18100000 instructions simulated : ctaid=(120,0,0) tid=(225,0,0)
GPGPU-Sim PTX: 18200000 instructions simulated : ctaid=(73,0,0) tid=(217,0,0)
GPGPU-Sim uArch: Shader 3 finished CTA #3 (46239,0), 4 CTAs running
GPGPU-Sim PTX: 18300000 instructions simulated : ctaid=(110,0,0) tid=(111,0,0)
GPGPU-Sim uArch: Shader 9 finished CTA #3 (46474,0), 4 CTAs running
GPGPU-Sim uArch: cycles simulated: 46500  inst.: 17484392 (ipc=376.0) sim_rate=239512 (inst/sec) elapsed = 0:0:01:13 / Wed May  1 12:45:01 2019
GPGPU-Sim PTX: 18400000 instructions simulated : ctaid=(63,0,0) tid=(247,0,0)
GPGPU-Sim PTX: 18500000 instructions simulated : ctaid=(77,0,0) tid=(162,0,0)
GPGPU-Sim PTX: 18600000 instructions simulated : ctaid=(82,0,0) tid=(126,0,0)
GPGPU-Sim uArch: Shader 13 finished CTA #3 (47214,0), 4 CTAs running
GPGPU-Sim PTX: 18700000 instructions simulated : ctaid=(62,0,0) tid=(77,0,0)
GPGPU-Sim PTX: 18800000 instructions simulated : ctaid=(61,0,0) tid=(61,0,0)
GPGPU-Sim PTX: 18900000 instructions simulated : ctaid=(74,0,0) tid=(77,0,0)
GPGPU-Sim uArch: Shader 3 finished CTA #4 (47764,0), 3 CTAs running
GPGPU-Sim PTX: 19000000 instructions simulated : ctaid=(66,0,0) tid=(222,0,0)
GPGPU-Sim uArch: cycles simulated: 48000  inst.: 18189829 (ipc=379.0) sim_rate=245808 (inst/sec) elapsed = 0:0:01:14 / Wed May  1 12:45:02 2019
GPGPU-Sim uArch: Shader 14 finished CTA #4 (48064,0), 4 CTAs running
GPGPU-Sim PTX: 19100000 instructions simulated : ctaid=(121,0,0) tid=(63,0,0)
GPGPU-Sim uArch: Shader 1 finished CTA #4 (48166,0), 3 CTAs running
GPGPU-Sim uArch: Shader 10 finished CTA #4 (48262,0), 4 CTAs running
GPGPU-Sim uArch: Shader 11 finished CTA #4 (48262,0), 4 CTAs running
GPGPU-Sim PTX: 19200000 instructions simulated : ctaid=(108,0,0) tid=(236,0,0)
GPGPU-Sim uArch: Shader 6 finished CTA #4 (48353,0), 4 CTAs running
GPGPU-Sim PTX: 19300000 instructions simulated : ctaid=(63,0,0) tid=(45,0,0)
GPGPU-Sim PTX: 19400000 instructions simulated : ctaid=(125,0,0) tid=(246,0,0)
GPGPU-Sim uArch: Shader 8 finished CTA #4 (48824,0), 4 CTAs running
GPGPU-Sim uArch: Shader 2 finished CTA #4 (48903,0), 4 CTAs running
GPGPU-Sim uArch: cycles simulated: 49000  inst.: 18599145 (ipc=379.6) sim_rate=247988 (inst/sec) elapsed = 0:0:01:15 / Wed May  1 12:45:03 2019
GPGPU-Sim PTX: 19500000 instructions simulated : ctaid=(100,0,0) tid=(127,0,0)
GPGPU-Sim uArch: Shader 7 finished CTA #4 (49008,0), 3 CTAs running
GPGPU-Sim uArch: Shader 0 finished CTA #4 (49090,0), 3 CTAs running
GPGPU-Sim uArch: Shader 4 finished CTA #4 (49132,0), 4 CTAs running
GPGPU-Sim PTX: 19600000 instructions simulated : ctaid=(84,0,0) tid=(9,0,0)
GPGPU-Sim PTX: 19700000 instructions simulated : ctaid=(92,0,0) tid=(73,0,0)
GPGPU-Sim uArch: cycles simulated: 49500  inst.: 18875827 (ipc=381.3) sim_rate=248366 (inst/sec) elapsed = 0:0:01:16 / Wed May  1 12:45:04 2019
GPGPU-Sim PTX: 19800000 instructions simulated : ctaid=(93,0,0) tid=(77,0,0)
GPGPU-Sim uArch: Shader 5 finished CTA #4 (49543,0), 4 CTAs running
GPGPU-Sim PTX: 19900000 instructions simulated : ctaid=(79,0,0) tid=(223,0,0)
GPGPU-Sim PTX: 20000000 instructions simulated : ctaid=(101,0,0) tid=(133,0,0)
GPGPU-Sim uArch: cycles simulated: 50000  inst.: 19126553 (ipc=382.5) sim_rate=248396 (inst/sec) elapsed = 0:0:01:17 / Wed May  1 12:45:05 2019
GPGPU-Sim PTX: 20100000 instructions simulated : ctaid=(125,0,0) tid=(235,0,0)
GPGPU-Sim PTX: 20200000 instructions simulated : ctaid=(84,0,0) tid=(194,0,0)
GPGPU-Sim uArch: cycles simulated: 50500  inst.: 19334108 (ipc=382.9) sim_rate=247873 (inst/sec) elapsed = 0:0:01:18 / Wed May  1 12:45:06 2019
GPGPU-Sim PTX: 20300000 instructions simulated : ctaid=(84,0,0) tid=(23,0,0)
GPGPU-Sim PTX: 20400000 instructions simulated : ctaid=(99,0,0) tid=(161,0,0)
GPGPU-Sim uArch: Shader 9 finished CTA #4 (50802,0), 3 CTAs running
GPGPU-Sim PTX: 20500000 instructions simulated : ctaid=(91,0,0) tid=(126,0,0)
GPGPU-Sim uArch: cycles simulated: 51000  inst.: 19553208 (ipc=383.4) sim_rate=247508 (inst/sec) elapsed = 0:0:01:19 / Wed May  1 12:45:07 2019
GPGPU-Sim uArch: Shader 10 finished CTA #5 (51089,0), 3 CTAs running
GPGPU-Sim PTX: 20600000 instructions simulated : ctaid=(77,0,0) tid=(16,0,0)
GPGPU-Sim uArch: Shader 12 finished CTA #4 (51224,0), 3 CTAs running
GPGPU-Sim PTX: 20700000 instructions simulated : ctaid=(111,0,0) tid=(183,0,0)
GPGPU-Sim uArch: cycles simulated: 51500  inst.: 19800835 (ipc=384.5) sim_rate=247510 (inst/sec) elapsed = 0:0:01:20 / Wed May  1 12:45:08 2019
GPGPU-Sim PTX: 20800000 instructions simulated : ctaid=(75,0,0) tid=(83,0,0)
GPGPU-Sim PTX: 20900000 instructions simulated : ctaid=(77,0,0) tid=(77,0,0)
GPGPU-Sim uArch: Shader 13 finished CTA #4 (51785,0), 3 CTAs running
GPGPU-Sim PTX: 21000000 instructions simulated : ctaid=(85,0,0) tid=(30,0,0)
GPGPU-Sim uArch: cycles simulated: 52000  inst.: 20048621 (ipc=385.6) sim_rate=247513 (inst/sec) elapsed = 0:0:01:21 / Wed May  1 12:45:09 2019
GPGPU-Sim PTX: 21100000 instructions simulated : ctaid=(105,0,0) tid=(59,0,0)
GPGPU-Sim uArch: Shader 11 finished CTA #5 (52163,0), 3 CTAs running
GPGPU-Sim uArch: Shader 14 finished CTA #5 (52200,0), 3 CTAs running
GPGPU-Sim PTX: 21200000 instructions simulated : ctaid=(115,0,0) tid=(225,0,0)
GPGPU-Sim PTX: 21300000 instructions simulated : ctaid=(114,0,0) tid=(31,0,0)
GPGPU-Sim uArch: cycles simulated: 52500  inst.: 20338414 (ipc=387.4) sim_rate=248029 (inst/sec) elapsed = 0:0:01:22 / Wed May  1 12:45:10 2019
GPGPU-Sim PTX: 21400000 instructions simulated : ctaid=(116,0,0) tid=(221,0,0)
GPGPU-Sim uArch: Shader 3 finished CTA #5 (52714,0), 2 CTAs running
GPGPU-Sim PTX: 21500000 instructions simulated : ctaid=(121,0,0) tid=(241,0,0)
GPGPU-Sim PTX: 21600000 instructions simulated : ctaid=(94,0,0) tid=(107,0,0)
GPGPU-Sim uArch: cycles simulated: 53000  inst.: 20632559 (ipc=389.3) sim_rate=248585 (inst/sec) elapsed = 0:0:01:23 / Wed May  1 12:45:11 2019
GPGPU-Sim PTX: 21700000 instructions simulated : ctaid=(114,0,0) tid=(117,0,0)
GPGPU-Sim uArch: Shader 1 finished CTA #5 (53156,0), 2 CTAs running
GPGPU-Sim uArch: Shader 8 finished CTA #5 (53220,0), 3 CTAs running
GPGPU-Sim uArch: Shader 7 finished CTA #5 (53241,0), 2 CTAs running
GPGPU-Sim PTX: 21800000 instructions simulated : ctaid=(113,0,0) tid=(90,0,0)
GPGPU-Sim uArch: cycles simulated: 53500  inst.: 20872200 (ipc=390.1) sim_rate=248478 (inst/sec) elapsed = 0:0:01:24 / Wed May  1 12:45:12 2019
GPGPU-Sim uArch: Shader 2 finished CTA #5 (53507,0), 3 CTAs running
GPGPU-Sim PTX: 21900000 instructions simulated : ctaid=(111,0,0) tid=(204,0,0)
GPGPU-Sim uArch: Shader 12 finished CTA #5 (53600,0), 2 CTAs running
GPGPU-Sim PTX: 22000000 instructions simulated : ctaid=(83,0,0) tid=(185,0,0)
GPGPU-Sim uArch: Shader 6 finished CTA #5 (53871,0), 3 CTAs running
GPGPU-Sim PTX: 22100000 instructions simulated : ctaid=(122,0,0) tid=(89,0,0)
GPGPU-Sim uArch: Shader 0 finished CTA #5 (53974,0), 2 CTAs running
GPGPU-Sim uArch: cycles simulated: 54000  inst.: 21126741 (ipc=391.2) sim_rate=248549 (inst/sec) elapsed = 0:0:01:25 / Wed May  1 12:45:13 2019
GPGPU-Sim PTX: 22200000 instructions simulated : ctaid=(99,0,0) tid=(211,0,0)
GPGPU-Sim uArch: Shader 4 finished CTA #5 (54121,0), 3 CTAs running
GPGPU-Sim PTX: 22300000 instructions simulated : ctaid=(122,0,0) tid=(193,0,0)
GPGPU-Sim uArch: Shader 5 finished CTA #5 (54409,0), 3 CTAs running
GPGPU-Sim PTX: 22400000 instructions simulated : ctaid=(95,0,0) tid=(228,0,0)
GPGPU-Sim PTX: 22500000 instructions simulated : ctaid=(116,0,0) tid=(29,0,0)
GPGPU-Sim uArch: Shader 9 finished CTA #5 (54962,0), 2 CTAs running
GPGPU-Sim PTX: 22600000 instructions simulated : ctaid=(123,0,0) tid=(6,0,0)
GPGPU-Sim PTX: 22700000 instructions simulated : ctaid=(91,0,0) tid=(41,0,0)
GPGPU-Sim uArch: cycles simulated: 55500  inst.: 21725897 (ipc=391.5) sim_rate=252626 (inst/sec) elapsed = 0:0:01:26 / Wed May  1 12:45:14 2019
GPGPU-Sim PTX: 22800000 instructions simulated : ctaid=(123,0,0) tid=(33,0,0)
GPGPU-Sim PTX: 22900000 instructions simulated : ctaid=(91,0,0) tid=(64,0,0)
GPGPU-Sim PTX: 23000000 instructions simulated : ctaid=(119,0,0) tid=(161,0,0)
GPGPU-Sim PTX: 23100000 instructions simulated : ctaid=(99,0,0) tid=(248,0,0)
GPGPU-Sim uArch: cycles simulated: 56500  inst.: 22073892 (ipc=390.7) sim_rate=253722 (inst/sec) elapsed = 0:0:01:27 / Wed May  1 12:45:15 2019
GPGPU-Sim uArch: Shader 13 finished CTA #5 (56551,0), 2 CTAs running
GPGPU-Sim PTX: 23200000 instructions simulated : ctaid=(117,0,0) tid=(44,0,0)
GPGPU-Sim PTX: 23300000 instructions simulated : ctaid=(101,0,0) tid=(39,0,0)
GPGPU-Sim PTX: 23400000 instructions simulated : ctaid=(96,0,0) tid=(105,0,0)
GPGPU-Sim PTX: 23500000 instructions simulated : ctaid=(113,0,0) tid=(179,0,0)
GPGPU-Sim PTX: 23600000 instructions simulated : ctaid=(109,0,0) tid=(133,0,0)
GPGPU-Sim PTX: 23700000 instructions simulated : ctaid=(120,0,0) tid=(192,0,0)
GPGPU-Sim PTX: 23800000 instructions simulated : ctaid=(93,0,0) tid=(189,0,0)
GPGPU-Sim uArch: Shader 10 finished CTA #0 (57964,0), 2 CTAs running
GPGPU-Sim uArch: cycles simulated: 58000  inst.: 22736767 (ipc=392.0) sim_rate=258372 (inst/sec) elapsed = 0:0:01:28 / Wed May  1 12:45:16 2019
GPGPU-Sim uArch: Shader 6 finished CTA #0 (58105,0), 2 CTAs running
GPGPU-Sim uArch: Shader 5 finished CTA #0 (58148,0), 2 CTAs running
GPGPU-Sim PTX: 23900000 instructions simulated : ctaid=(114,0,0) tid=(30,0,0)
GPGPU-Sim PTX: 24000000 instructions simulated : ctaid=(122,0,0) tid=(11,0,0)
GPGPU-Sim uArch: Shader 0 finished CTA #0 (58496,0), 1 CTAs running
GPGPU-Sim uArch: cycles simulated: 58500  inst.: 22922807 (ipc=391.8) sim_rate=257559 (inst/sec) elapsed = 0:0:01:29 / Wed May  1 12:45:17 2019
GPGPU-Sim uArch: Shader 1 finished CTA #0 (58617,0), 1 CTAs running
GPGPU-Sim uArch: Shader 11 finished CTA #0 (58679,0), 2 CTAs running
GPGPU-Sim PTX: 24100000 instructions simulated : ctaid=(91,0,0) tid=(201,0,0)
GPGPU-Sim uArch: Shader 12 finished CTA #0 (58701,0), 1 CTAs running
GPGPU-Sim uArch: Shader 14 finished CTA #0 (58893,0), 2 CTAs running
GPGPU-Sim PTX: 24200000 instructions simulated : ctaid=(116,0,0) tid=(59,0,0)
GPGPU-Sim uArch: cycles simulated: 59000  inst.: 23086150 (ipc=391.3) sim_rate=256512 (inst/sec) elapsed = 0:0:01:30 / Wed May  1 12:45:18 2019
GPGPU-Sim uArch: Shader 7 finished CTA #0 (59143,0), 1 CTAs running
GPGPU-Sim uArch: Shader 3 finished CTA #0 (59287,0), 1 CTAs running
GPGPU-Sim PTX: 24300000 instructions simulated : ctaid=(113,0,0) tid=(248,0,0)
GPGPU-Sim uArch: Shader 8 finished CTA #0 (59529,0), 2 CTAs running
GPGPU-Sim uArch: Shader 9 finished CTA #0 (59591,0), 1 CTAs running
GPGPU-Sim PTX: 24400000 instructions simulated : ctaid=(110,0,0) tid=(123,0,0)
GPGPU-Sim PTX: 24500000 instructions simulated : ctaid=(97,0,0) tid=(49,0,0)
GPGPU-Sim uArch: cycles simulated: 60000  inst.: 23396265 (ipc=389.9) sim_rate=257101 (inst/sec) elapsed = 0:0:01:31 / Wed May  1 12:45:19 2019
GPGPU-Sim uArch: Shader 2 finished CTA #0 (60235,0), 2 CTAs running
GPGPU-Sim PTX: 24600000 instructions simulated : ctaid=(108,0,0) tid=(69,0,0)
GPGPU-Sim uArch: cycles simulated: 60500  inst.: 23542196 (ipc=389.1) sim_rate=255893 (inst/sec) elapsed = 0:0:01:32 / Wed May  1 12:45:20 2019
GPGPU-Sim PTX: 24700000 instructions simulated : ctaid=(122,0,0) tid=(109,0,0)
GPGPU-Sim uArch: Shader 13 finished CTA #0 (60567,0), 1 CTAs running
GPGPU-Sim uArch: Shader 10 finished CTA #1 (60784,0), 1 CTAs running
GPGPU-Sim PTX: 24800000 instructions simulated : ctaid=(120,0,0) tid=(56,0,0)
GPGPU-Sim uArch: Shader 14 finished CTA #1 (61079,0), 1 CTAs running
GPGPU-Sim PTX: 24900000 instructions simulated : ctaid=(114,0,0) tid=(31,0,0)
GPGPU-Sim PTX: 25000000 instructions simulated : ctaid=(118,0,0) tid=(47,0,0)
GPGPU-Sim uArch: Shader 6 finished CTA #1 (61468,0), 1 CTAs running
GPGPU-Sim uArch: Shader 4 finished CTA #0 (61485,0), 2 CTAs running
GPGPU-Sim uArch: cycles simulated: 61500  inst.: 23876360 (ipc=388.2) sim_rate=256735 (inst/sec) elapsed = 0:0:01:33 / Wed May  1 12:45:21 2019
GPGPU-Sim PTX: 25100000 instructions simulated : ctaid=(121,0,0) tid=(203,0,0)
GPGPU-Sim uArch: Shader 7 finished CTA #1 (61790,0), 0 CTAs running
GPGPU-Sim uArch: Shader 7 empty (release kernel 1 '_Z13scalarProdGPUPfS_S_ii').
GPGPU-Sim uArch: Shader 3 finished CTA #1 (61848,0), 0 CTAs running
GPGPU-Sim uArch: Shader 3 empty (release kernel 1 '_Z13scalarProdGPUPfS_S_ii').
GPGPU-Sim uArch: cycles simulated: 62000  inst.: 24032094 (ipc=387.6) sim_rate=255660 (inst/sec) elapsed = 0:0:01:34 / Wed May  1 12:45:22 2019
GPGPU-Sim uArch: Shader 1 finished CTA #1 (62011,0), 0 CTAs running
GPGPU-Sim uArch: Shader 1 empty (release kernel 1 '_Z13scalarProdGPUPfS_S_ii').
GPGPU-Sim PTX: 25200000 instructions simulated : ctaid=(115,0,0) tid=(102,0,0)
GPGPU-Sim uArch: Shader 12 finished CTA #1 (62206,0), 0 CTAs running
GPGPU-Sim uArch: Shader 12 empty (release kernel 1 '_Z13scalarProdGPUPfS_S_ii').
GPGPU-Sim uArch: Shader 0 finished CTA #1 (62291,0), 0 CTAs running
GPGPU-Sim uArch: Shader 0 empty (release kernel 1 '_Z13scalarProdGPUPfS_S_ii').
GPGPU-Sim uArch: Shader 11 finished CTA #1 (62319,0), 1 CTAs running
GPGPU-Sim PTX: 25300000 instructions simulated : ctaid=(125,0,0) tid=(246,0,0)
GPGPU-Sim uArch: Shader 8 finished CTA #1 (62676,0), 1 CTAs running
GPGPU-Sim uArch: Shader 13 finished CTA #1 (62708,0), 0 CTAs running
GPGPU-Sim uArch: Shader 13 empty (release kernel 1 '_Z13scalarProdGPUPfS_S_ii').
GPGPU-Sim uArch: Shader 5 finished CTA #1 (62871,0), 1 CTAs running
GPGPU-Sim PTX: 25400000 instructions simulated : ctaid=(123,0,0) tid=(189,0,0)
GPGPU-Sim uArch: Shader 9 finished CTA #1 (62957,0), 0 CTAs running
GPGPU-Sim uArch: Shader 9 empty (release kernel 1 '_Z13scalarProdGPUPfS_S_ii').
GPGPU-Sim uArch: cycles simulated: 63000  inst.: 24248691 (ipc=384.9) sim_rate=255249 (inst/sec) elapsed = 0:0:01:35 / Wed May  1 12:45:23 2019
GPGPU-Sim uArch: Shader 2 finished CTA #1 (63198,0), 1 CTAs running
GPGPU-Sim uArch: Shader 10 finished CTA #2 (63280,0), 0 CTAs running
GPGPU-Sim uArch: Shader 10 empty (release kernel 1 '_Z13scalarProdGPUPfS_S_ii').
GPGPU-Sim uArch: Shader 4 finished CTA #1 (63380,0), 1 CTAs running
GPGPU-Sim PTX: 25500000 instructions simulated : ctaid=(122,0,0) tid=(194,0,0)
GPGPU-Sim uArch: Shader 14 finished CTA #2 (63795,0), 0 CTAs running
GPGPU-Sim uArch: Shader 14 empty (release kernel 1 '_Z13scalarProdGPUPfS_S_ii').
GPGPU-Sim uArch: Shader 6 finished CTA #2 (63829,0), 0 CTAs running
GPGPU-Sim uArch: Shader 6 empty (release kernel 1 '_Z13scalarProdGPUPfS_S_ii').
GPGPU-Sim uArch: Shader 11 finished CTA #2 (64118,0), 0 CTAs running
GPGPU-Sim uArch: Shader 11 empty (release kernel 1 '_Z13scalarProdGPUPfS_S_ii').
GPGPU-Sim uArch: cycles simulated: 64500  inst.: 24402586 (ipc=378.3) sim_rate=254193 (inst/sec) elapsed = 0:0:01:36 / Wed May  1 12:45:24 2019
GPGPU-Sim uArch: Shader 8 finished CTA #2 (64501,0), 0 CTAs running
GPGPU-Sim uArch: Shader 8 empty (release kernel 1 '_Z13scalarProdGPUPfS_S_ii').
GPGPU-Sim uArch: Shader 5 finished CTA #2 (64564,0), 0 CTAs running
GPGPU-Sim uArch: Shader 5 empty (release kernel 1 '_Z13scalarProdGPUPfS_S_ii').
GPGPU-Sim PTX: 25600000 instructions simulated : ctaid=(126,0,0) tid=(77,0,0)
GPGPU-Sim uArch: Shader 2 finished CTA #2 (65254,0), 0 CTAs running
GPGPU-Sim uArch: Shader 2 empty (release kernel 1 '_Z13scalarProdGPUPfS_S_ii').
GPGPU-Sim uArch: Shader 4 finished CTA #2 (65946,0), 0 CTAs running
GPGPU-Sim uArch: Shader 4 empty (release kernel 1 '_Z13scalarProdGPUPfS_S_ii').
GPGPU-Sim uArch: GPU detected kernel '_Z13scalarProdGPUPfS_S_ii' finished on shader 4.
GPGPU-Sim: synchronize waiting for inactive GPU simulation
kernel_name = _Z13scalarProdGPUPfS_S_ii 
kernel_launch_uid = 1 
gpu_sim_cycle = 65947
gpu_sim_insn = 24441600
gpu_ipc =     370.6249
gpu_tot_sim_cycle = 65947
gpu_tot_sim_insn = 24441600
gpu_tot_ipc =     370.6249
gpu_tot_issued_cta = 0
gpu_stall_dramfull = 34211
gpu_stall_icnt2sh    = 344408
gpu_total_sim_rate=254600

========= Core cache stats =========
L1I_cache:
	L1I_total_cache_accesses = 465642
	L1I_total_cache_misses = 2026
	L1I_total_cache_miss_rate = 0.0044
	L1I_total_cache_pending_hits = 0
	L1I_total_cache_reservation_fails = 6262
L1D_cache:
	L1D_cache_core[0]: Access = 4112, Miss = 4112, Miss_rate = 1.000, Pending_hits = 0, Reservation_fails = 35713
	L1D_cache_core[1]: Access = 4112, Miss = 4112, Miss_rate = 1.000, Pending_hits = 0, Reservation_fails = 34464
	L1D_cache_core[2]: Access = 4626, Miss = 4626, Miss_rate = 1.000, Pending_hits = 0, Reservation_fails = 39177
	L1D_cache_core[3]: Access = 4112, Miss = 4112, Miss_rate = 1.000, Pending_hits = 0, Reservation_fails = 33736
	L1D_cache_core[4]: Access = 4626, Miss = 4626, Miss_rate = 1.000, Pending_hits = 0, Reservation_fails = 39789
	L1D_cache_core[5]: Access = 4626, Miss = 4626, Miss_rate = 1.000, Pending_hits = 0, Reservation_fails = 36714
	L1D_cache_core[6]: Access = 4626, Miss = 4626, Miss_rate = 1.000, Pending_hits = 0, Reservation_fails = 37228
	L1D_cache_core[7]: Access = 4112, Miss = 4112, Miss_rate = 1.000, Pending_hits = 0, Reservation_fails = 35283
	L1D_cache_core[8]: Access = 4626, Miss = 4626, Miss_rate = 1.000, Pending_hits = 0, Reservation_fails = 36995
	L1D_cache_core[9]: Access = 4112, Miss = 4112, Miss_rate = 1.000, Pending_hits = 0, Reservation_fails = 36586
	L1D_cache_core[10]: Access = 4626, Miss = 4626, Miss_rate = 1.000, Pending_hits = 0, Reservation_fails = 35491
	L1D_cache_core[11]: Access = 4626, Miss = 4626, Miss_rate = 1.000, Pending_hits = 0, Reservation_fails = 36847
	L1D_cache_core[12]: Access = 4112, Miss = 4112, Miss_rate = 1.000, Pending_hits = 0, Reservation_fails = 36300
	L1D_cache_core[13]: Access = 4112, Miss = 4112, Miss_rate = 1.000, Pending_hits = 0, Reservation_fails = 36788
	L1D_cache_core[14]: Access = 4626, Miss = 4626, Miss_rate = 1.000, Pending_hits = 0, Reservation_fails = 39191
	L1D_total_cache_accesses = 65792
	L1D_total_cache_misses = 65792
	L1D_total_cache_miss_rate = 1.0000
	L1D_total_cache_pending_hits = 0
	L1D_total_cache_reservation_fails = 550302
	L1D_cache_data_port_util = 0.000
	L1D_cache_fill_port_util = 0.069
L1C_cache:
	L1C_total_cache_accesses = 19712
	L1C_total_cache_misses = 480
	L1C_total_cache_miss_rate = 0.0244
	L1C_total_cache_pending_hits = 0
	L1C_total_cache_reservation_fails = 3404
L1T_cache:
	L1T_total_cache_accesses = 0
	L1T_total_cache_misses = 0
	L1T_total_cache_pending_hits = 0
	L1T_total_cache_reservation_fails = 0

Total_core_cache_stats:
	Total_core_cache_stats_breakdown[GLOBAL_ACC_R][MISS] = 65536
	Total_core_cache_stats_breakdown[GLOBAL_ACC_R][RESERVATION_FAIL] = 549504
	Total_core_cache_stats_breakdown[CONST_ACC_R][HIT] = 19232
	Total_core_cache_stats_breakdown[CONST_ACC_R][MISS] = 480
	Total_core_cache_stats_breakdown[CONST_ACC_R][RESERVATION_FAIL] = 3404
	Total_core_cache_stats_breakdown[GLOBAL_ACC_W][MISS] = 256
	Total_core_cache_stats_breakdown[GLOBAL_ACC_W][RESERVATION_FAIL] = 798
	Total_core_cache_stats_breakdown[INST_ACC_R][HIT] = 463616
	Total_core_cache_stats_breakdown[INST_ACC_R][MISS] = 2026
	Total_core_cache_stats_breakdown[INST_ACC_R][RESERVATION_FAIL] = 6262
Shader 0 warp_id issue ditsribution:
warp_id:
0, 1, 2, 3, 4, 5, 6, 7, 8, 9, 10, 11, 12, 13, 14, 15, 16, 17, 18, 19, 20, 21, 22, 23, 24, 25, 26, 27, 28, 29, 30, 31, 32, 33, 34, 35, 36, 37, 38, 39, 40, 41, 42, 43, 44, 45, 46, 47, 
distro:
2148, 1644, 1564, 1564, 1484, 1484, 1484, 1484, 2148, 1644, 1564, 1564, 1484, 1484, 1484, 1484, 1074, 822, 782, 782, 742, 742, 742, 742, 1074, 822, 782, 782, 742, 742, 742, 742, 1074, 822, 782, 782, 742, 742, 742, 742, 1074, 822, 782, 782, 742, 742, 742, 742, 
gpgpu_n_tot_thrd_icount = 26329088
gpgpu_n_tot_w_icount = 822784
gpgpu_n_stall_shd_mem = 553706
gpgpu_n_mem_read_local = 0
gpgpu_n_mem_write_local = 0
gpgpu_n_mem_read_global = 65536
gpgpu_n_mem_write_global = 256
gpgpu_n_mem_texture = 0
gpgpu_n_mem_const = 15
gpgpu_n_load_insn  = 2097152
gpgpu_n_store_insn = 256
gpgpu_n_shmem_insn = 1048064
gpgpu_n_tex_insn = 0
gpgpu_n_const_mem_insn = 0
gpgpu_n_param_mem_insn = 622848
gpgpu_n_shmem_bkconflict = 0
gpgpu_n_cache_bkconflict = 0
gpgpu_n_intrawarp_mshr_merge = 0
gpgpu_n_cmem_portconflict = 3404
gpgpu_stall_shd_mem[c_mem][bk_conf] = 3404
gpgpu_stall_shd_mem[c_mem][mshr_rc] = 0
gpgpu_stall_shd_mem[c_mem][icnt_rc] = 0
gpgpu_stall_shd_mem[c_mem][data_port_stall] = 0
gpgpu_stall_shd_mem[t_mem][mshr_rc] = 0
gpgpu_stall_shd_mem[t_mem][icnt_rc] = 0
gpgpu_stall_shd_mem[t_mem][data_port_stall] = 0
gpgpu_stall_shd_mem[s_mem][bk_conf] = 0
gpgpu_stall_shd_mem[gl_mem][bk_conf] = 0
gpgpu_stall_shd_mem[gl_mem][coal_stall] = 550302
gpgpu_stall_shd_mem[gl_mem][data_port_stall] = 0
gpgpu_stall_shd_mem[g_mem_ld][mshr_rc] = 0
gpgpu_stall_shd_mem[g_mem_ld][icnt_rc] = 0
gpgpu_stall_shd_mem[g_mem_ld][wb_icnt_rc] = 0
gpgpu_stall_shd_mem[g_mem_ld][wb_rsrv_fail] = 0
gpgpu_stall_shd_mem[g_mem_st][mshr_rc] = 0
gpgpu_stall_shd_mem[g_mem_st][icnt_rc] = 0
gpgpu_stall_shd_mem[g_mem_st][wb_icnt_rc] = 0
gpgpu_stall_shd_mem[g_mem_st][wb_rsrv_fail] = 0
gpgpu_stall_shd_mem[l_mem_ld][mshr_rc] = 0
gpgpu_stall_shd_mem[l_mem_ld][icnt_rc] = 0
gpgpu_stall_shd_mem[l_mem_ld][wb_icnt_rc] = 0
gpgpu_stall_shd_mem[l_mem_ld][wb_rsrv_fail] = 0
gpgpu_stall_shd_mem[l_mem_st][mshr_rc] = 0
gpgpu_stall_shd_mem[l_mem_st][icnt_rc] = 0
gpgpu_stall_shd_mem[l_mem_ld][wb_icnt_rc] = 0
gpgpu_stall_shd_mem[l_mem_ld][wb_rsrv_fail] = 0
gpu_reg_bank_conflict_stalls = 0
Warp Occupancy Distribution:
Stall:763601	W0_Idle:27148	W0_Scoreboard:288693	W1:6656	W2:5120	W3:0	W4:5120	W5:0	W6:0	W7:0	W8:5120	W9:0	W10:0	W11:0	W12:0	W13:0	W14:0	W15:0	W16:5120	W17:0	W18:0	W19:0	W20:0	W21:0	W22:0	W23:0	W24:0	W25:0	W26:0	W27:0	W28:0	W29:0	W30:0	W31:0	W32:795648
traffic_breakdown_coretomem[CONST_ACC_R] = 120 {8:15,}
traffic_breakdown_coretomem[GLOBAL_ACC_R] = 524288 {8:65536,}
traffic_breakdown_coretomem[GLOBAL_ACC_W] = 10240 {40:256,}
traffic_breakdown_coretomem[INST_ACC_R] = 840 {8:105,}
traffic_breakdown_memtocore[CONST_ACC_R] = 1080 {72:15,}
traffic_breakdown_memtocore[GLOBAL_ACC_R] = 8912896 {136:65536,}
traffic_breakdown_memtocore[GLOBAL_ACC_W] = 2048 {8:256,}
traffic_breakdown_memtocore[INST_ACC_R] = 14280 {136:105,}
maxmrqlatency = 501 
maxdqlatency = 0 
maxmflatency = 871 
averagemflatency = 352 
max_icnt2mem_latency = 249 
max_icnt2sh_latency = 65946 
mrq_lat_table:41400 	1621 	2053 	4141 	7510 	5796 	2753 	278 	18 	0 	0 	0 	0 	0 	0 	0 	0 	0 	0 	0 	0 	0 	0 	0 	0 	0 	0 	0 	0 	0 	0 	0 	
dq_lat_table:0 	0 	0 	0 	0 	0 	0 	0 	0 	0 	0 	0 	0 	0 	0 	0 	0 	0 	0 	0 	0 	0 	0 	0 	0 	0 	0 	0 	0 	0 	0 	0 	
mf_lat_table:0 	0 	0 	0 	0 	0 	0 	222 	63676 	1909 	0 	0 	0 	0 	0 	0 	0 	0 	0 	0 	0 	0 	0 	0 	0 	0 	0 	0 	0 	0 	0 	0 	
icnt2mem_lat_table:0 	0 	0 	57512 	5309 	1411 	1210 	470 	0 	0 	0 	0 	0 	0 	0 	0 	0 	0 	0 	0 	0 	0 	0 	0 	
icnt2sh_lat_table:0 	0 	0 	8150 	35145 	20748 	1508 	0 	0 	0 	0 	0 	0 	0 	78 	177 	1 	0 	0 	0 	0 	0 	0 	0 	
mf_lat_pw_table:0 	0 	0 	0 	0 	0 	0 	4 	125 	0 	0 	0 	0 	0 	0 	0 	0 	0 	0 	0 	0 	0 	0 	0 	0 	0 	0 	0 	0 	0 	0 	0 	
maximum concurrent accesses to same row:
dram[0]:         5         6         9         6         5         5         5         5         6         4         6         5         6         6         6         5 
dram[1]:         4         5         7         6         5         5         5         5         5         6         6         5         6         6         6         6 
dram[2]:         5         6         6        11         4         5         6         5         6         6         5         5         6         6         6         6 
dram[3]:         4         6         6        11         6         6         5         6         6         7         6         6         5         8         6         6 
dram[4]:         6         6         6         6         5         6         5         5         5         6         6         5         6         4         7         5 
dram[5]:         5         5         6         6         5         5         6         5         6         6         9         5         6         5         6         6 
maximum service time to same row:
dram[0]:      1051      1951      1957      1972      1922      1988      1959      1935      1963      1957      1973      1966      1976      1997      1938      1941 
dram[1]:      1443      1954      1961      1979      1926      1993      1963      1938      1967      1960      1977      1999      1981      2001      1943      1944 
dram[2]:      1963      1929      1965      1937      1929      1953      1966      1954      1972      1919      1981      1944      1985      1969      1947      1971 
dram[3]:      1966      1932      1969      1941      1934      1957      1976      1959      1977      1924      1985      1949      1988      1972      1951      1975 
dram[4]:      1943      1937      1965      1944      1979      1961      1926      1963      1949      1928      1959      1953      1985      1976      1932      1979 
dram[5]:      1947      1941      1969      1949      1986      1965      1931      1966      1953      1932      1963      1957      1993      1989      1937      1982 
average row accesses per activate:
dram[0]:  1.347305  1.325444  1.438972  1.317647  1.383367  1.286792  1.325800  1.340952  1.388560  1.346080  1.381818  1.300000  1.429787  1.330693  1.408805  1.333333 
dram[1]:  1.321569  1.258427  1.354839  1.322835  1.326848  1.281955  1.348659  1.270758  1.348659  1.348659  1.354455  1.251366  1.346693  1.309942  1.379877  1.312500 
dram[2]:  1.342629  1.368635  1.304854  1.445161  1.296578  1.357143  1.343511  1.296501  1.338403  1.359073  1.293006  1.400411  1.330693  1.397089  1.317647  1.429787 
dram[3]:  1.265038  1.315068  1.322835  1.328063  1.306513  1.302857  1.277677  1.313433  1.361702  1.346080  1.255046  1.353175  1.341317  1.344000  1.354839  1.352113 
dram[4]:  1.349398  1.309942  1.397089  1.328063  1.380567  1.310345  1.328302  1.323308  1.383104  1.343511  1.415133  1.324272  1.338645  1.320236  1.435897  1.309942 
dram[5]:  1.315068  1.292308  1.284895  1.309942  1.345168  1.280899  1.340952  1.294118  1.340952  1.372320  1.324324  1.272388  1.346693  1.325444  1.391304  1.335984 
average row locality = 65570/49090 = 1.335710
number of total memory accesses made:
dram[0]:         0         0         0         0         0         0         0         0         0         0         0         0         0         0         0         0 
dram[1]:         0         0         0         0         0         0         0         0         0         0         0         0         0         0         0         0 
dram[2]:         0         0         0         0         0         0         0         0         0         0         0         0         0         0         0         0 
dram[3]:         0         0         0         0         0         0         0         0         0         0         0         0         0         0         0         0 
dram[4]:         0         0         0         0         0         0         0         0         0         0         0         0         0         0         0         0 
dram[5]:         0         0         0         0         0         0         0         0         0         0         0         0         0         0         0         0 
total accesses: 0
min_bank_accesses = 0!
min_chip_accesses = 0!
number of total read accesses:
dram[0]:       675       672       672       672       682       682       704       704       704       704       684       684       672       672       672       672 
dram[1]:       674       672       672       672       682       682       704       704       704       704       684       684       672       672       672       672 
dram[2]:       674       672       672       672       682       684       704       704       704       704       684       682       672       672       672       672 
dram[3]:       673       672       672       672       682       684       704       704       704       704       684       682       672       672       672       672 
dram[4]:       672       672       672       672       682       684       704       704       704       704       684       682       672       672       672       672 
dram[5]:       672       672       672       672       682       684       704       704       704       704       684       682       672       672       672       672 
total reads: 65552
bank skew: 704/672 = 1.05
chip skew: 10927/10924 = 1.00
number of total write accesses:
dram[0]:         0         0         0         0         0         0         0         0         0         0         0         5         0         0         0         0 
dram[1]:         0         0         0         0         0         0         0         0         0         0         0         3         0         0         0         0 
dram[2]:         0         0         0         0         0         0         0         0         0         0         0         0         0         0         0         0 
dram[3]:         0         0         0         0         0         0         0         0         0         0         0         0         0         0         0         0 
dram[4]:         0         0         0         0         0         0         0         0         0         0         8         0         0         0         0         0 
dram[5]:         0         0         0         0         0         0         0         0         0         0         2         0         0         0         0         0 
total reads: 18
min_bank_accesses = 0!
min_chip_accesses = 0!
average mf latency per bank:
dram[0]:        375       347       365       344       371       348       368       349       364       342       366       366       370       346       367       345
dram[1]:        360       340       357       343       359       346       361       345       350       341       355       359       356       343       356       344
dram[2]:        344       352       344       350       348       355       351       357       340       347       344       350       350       354       351       347
dram[3]:        353       345       348       348       351       348       352       348       344       345       352       344       350       352       355       344
dram[4]:        366       349       367       349       362       350       374       360       363       353       391       353       366       357       367       350
dram[5]:        356       347       354       342       357       345       357       349       348       344       370       349       347       351       350       354
maximum mf latency per bank:
dram[0]:        678       677       645       655       653       628       771       631       707       611       715       632       661       646       653       613
dram[1]:        598       541       601       571       613       575       654       559       601       598       571       580       605       544       633       568
dram[2]:        611       602       573       628       644       749       642       667       605       613       635       706       703       653       648       595
dram[3]:        664       630       528       619       553       597       574       672       556       593       550       560       578       623       630       554
dram[4]:        632       628       762       599       622       637       779       679       625       683       871       598       666       594       741       630
dram[5]:        638       572       614       552       607       639       603       674       578       592       601       608       576       576       544       597

Number of Memory Banks Accessed per Memory Operation per Warp (from 0):
0	0	0	0	0	0	0	0	0	0	0	0	0	0	0	0	0	0	0	0	0	0	0	0	0	0	0	0	0	0	0	0	0	0	0	0	0	0	0	0	0	0	0	0	0	0	0	0	0	0	0	0	0	0	0	0	0	0	0	0	0	0	0	0	0	0	0	0	0	0	0	0	0	0	0	0	0	0	0	0	0	0	0	0	0	0	0	0	0	0	0	0	0	0	0	0	
Average # of Memory Banks Accessed per Memory Operation per Warp=-nan

position of mrq chosen
0	0	0	0	0	0	0	0	0	0	0	0	0	0	0	0	

average position of mrq chosen = -nan
Memory Partition 0: 
Cache L2_bank_000:
MSHR contents

Cache L2_bank_001:
MSHR contents

In Dram Latency Queue (total = 0): 
DRAM[0]: 16 bks, busW=4 BL=8 CL=12, tRRD=2 tCCD=6, tRCD=12 tRAS=28 tRP=12 tRC=40
n_cmd=87049 n_nop=49055 n_act=8075 n_pre=8059 n_req=10932 n_rd=21854 n_write=6 bw_util=0.5022
n_activity=78781 dram_eff=0.555
bk0: 1350a 63303i bk1: 1344a 64115i bk2: 1344a 64737i bk3: 1344a 63991i bk4: 1364a 62543i bk5: 1364a 62773i bk6: 1408a 61487i bk7: 1408a 61400i bk8: 1408a 63461i bk9: 1408a 63743i bk10: 1368a 63716i bk11: 1368a 62365i bk12: 1344a 63690i bk13: 1344a 62841i bk14: 1344a 63044i bk15: 1344a 63257i 
dram_util_bins: 0 0 0 0 0 0 0 0 0 0
dram_eff_bins: 0 0 0 0 0 0 0 0 0 0
mrqq: max=16 avg=2.05985
Memory Partition 1: 
Cache L2_bank_002:
MSHR contents

Cache L2_bank_003:
MSHR contents

In Dram Latency Queue (total = 0): 
DRAM[1]: 16 bks, busW=4 BL=8 CL=12, tRRD=2 tCCD=6, tRCD=12 tRAS=28 tRP=12 tRC=40
n_cmd=87049 n_nop=48652 n_act=8279 n_pre=8263 n_req=10929 n_rd=21852 n_write=3 bw_util=0.5021
n_activity=78990 dram_eff=0.5534
bk0: 1348a 63575i bk1: 1344a 63207i bk2: 1344a 64156i bk3: 1344a 64032i bk4: 1364a 62505i bk5: 1364a 62644i bk6: 1408a 61955i bk7: 1408a 61241i bk8: 1408a 63358i bk9: 1408a 63820i bk10: 1368a 63987i bk11: 1368a 62428i bk12: 1344a 63834i bk13: 1344a 63537i bk14: 1344a 63383i bk15: 1344a 62379i 
dram_util_bins: 0 0 0 0 0 0 0 0 0 0
dram_eff_bins: 0 0 0 0 0 0 0 0 0 0
mrqq: max=16 avg=1.79954
Memory Partition 2: 
Cache L2_bank_004:
MSHR contents

Cache L2_bank_005:
MSHR contents

In Dram Latency Queue (total = 0): 
DRAM[2]: 16 bks, busW=4 BL=8 CL=12, tRRD=2 tCCD=6, tRCD=12 tRAS=28 tRP=12 tRC=40
n_cmd=87049 n_nop=49021 n_act=8096 n_pre=8080 n_req=10926 n_rd=21852 n_write=0 bw_util=0.5021
n_activity=78637 dram_eff=0.5558
bk0: 1348a 64497i bk1: 1344a 64425i bk2: 1344a 64026i bk3: 1344a 65162i bk4: 1364a 62943i bk5: 1368a 63168i bk6: 1408a 61917i bk7: 1408a 61136i bk8: 1408a 63979i bk9: 1408a 63497i bk10: 1368a 63196i bk11: 1364a 63907i bk12: 1344a 63477i bk13: 1344a 63840i bk14: 1344a 63120i bk15: 1344a 64162i 
dram_util_bins: 0 0 0 0 0 0 0 0 0 0
dram_eff_bins: 0 0 0 0 0 0 0 0 0 0
mrqq: max=16 avg=1.87253
Memory Partition 3: 
Cache L2_bank_006:
MSHR contents

Cache L2_bank_007:
MSHR contents

In Dram Latency Queue (total = 0): 
DRAM[3]: 16 bks, busW=4 BL=8 CL=12, tRRD=2 tCCD=6, tRCD=12 tRAS=28 tRP=12 tRC=40
n_cmd=87049 n_nop=48667 n_act=8274 n_pre=8258 n_req=10925 n_rd=21850 n_write=0 bw_util=0.502
n_activity=78405 dram_eff=0.5574
bk0: 1346a 63562i bk1: 1344a 64148i bk2: 1344a 64231i bk3: 1344a 64037i bk4: 1364a 62616i bk5: 1368a 62712i bk6: 1408a 61087i bk7: 1408a 60886i bk8: 1408a 63657i bk9: 1408a 63390i bk10: 1368a 62172i bk11: 1364a 64140i bk12: 1344a 63953i bk13: 1344a 63364i bk14: 1344a 63338i bk15: 1344a 63258i 
dram_util_bins: 0 0 0 0 0 0 0 0 0 0
dram_eff_bins: 0 0 0 0 0 0 0 0 0 0
mrqq: max=16 avg=1.74567
Memory Partition 4: 
Cache L2_bank_008:
MSHR contents

Cache L2_bank_009:
MSHR contents

In Dram Latency Queue (total = 0): 
DRAM[4]: 16 bks, busW=4 BL=8 CL=12, tRRD=2 tCCD=6, tRCD=12 tRAS=28 tRP=12 tRC=40
n_cmd=87049 n_nop=48997 n_act=8105 n_pre=8089 n_req=10932 n_rd=21848 n_write=10 bw_util=0.5022
n_activity=78263 dram_eff=0.5586
bk0: 1344a 63991i bk1: 1344a 63389i bk2: 1344a 64395i bk3: 1344a 63306i bk4: 1364a 62663i bk5: 1368a 62280i bk6: 1408a 60346i bk7: 1408a 60033i bk8: 1408a 62880i bk9: 1408a 62473i bk10: 1368a 62223i bk11: 1364a 62619i bk12: 1344a 62977i bk13: 1344a 62341i bk14: 1344a 63272i bk15: 1344a 62029i 
dram_util_bins: 0 0 0 0 0 0 0 0 0 0
dram_eff_bins: 0 0 0 0 0 0 0 0 0 0
mrqq: max=16 avg=2.26155
Memory Partition 5: 
Cache L2_bank_010:
MSHR contents

Cache L2_bank_011:
MSHR contents

In Dram Latency Queue (total = 0): 
DRAM[5]: 16 bks, busW=4 BL=8 CL=12, tRRD=2 tCCD=6, tRCD=12 tRAS=28 tRP=12 tRC=40
n_cmd=87049 n_nop=48693 n_act=8261 n_pre=8245 n_req=10926 n_rd=21848 n_write=2 bw_util=0.502
n_activity=78847 dram_eff=0.5542
bk0: 1344a 63733i bk1: 1344a 64052i bk2: 1344a 62930i bk3: 1344a 63958i bk4: 1364a 63266i bk5: 1368a 62551i bk6: 1408a 61623i bk7: 1408a 60700i bk8: 1408a 63607i bk9: 1408a 63733i bk10: 1368a 63290i bk11: 1364a 63218i bk12: 1344a 63548i bk13: 1344a 63164i bk14: 1344a 63684i bk15: 1344a 62968i 
dram_util_bins: 0 0 0 0 0 0 0 0 0 0
dram_eff_bins: 0 0 0 0 0 0 0 0 0 0
mrqq: max=16 avg=1.75884

========= L2 cache stats =========
L2_cache_bank[0]: Access = 5507, Miss = 5465, Miss_rate = 0.992, Pending_hits = 9, Reservation_fails = 1303
L2_cache_bank[1]: Access = 5524, Miss = 5462, Miss_rate = 0.989, Pending_hits = 2, Reservation_fails = 57
L2_cache_bank[2]: Access = 5492, Miss = 5464, Miss_rate = 0.995, Pending_hits = 6, Reservation_fails = 498
L2_cache_bank[3]: Access = 5524, Miss = 5462, Miss_rate = 0.989, Pending_hits = 1, Reservation_fails = 90
L2_cache_bank[4]: Access = 5492, Miss = 5464, Miss_rate = 0.995, Pending_hits = 1, Reservation_fails = 304
L2_cache_bank[5]: Access = 5462, Miss = 5462, Miss_rate = 1.000, Pending_hits = 0, Reservation_fails = 787
L2_cache_bank[6]: Access = 5477, Miss = 5463, Miss_rate = 0.997, Pending_hits = 1, Reservation_fails = 63
L2_cache_bank[7]: Access = 5462, Miss = 5462, Miss_rate = 1.000, Pending_hits = 0, Reservation_fails = 159
L2_cache_bank[8]: Access = 5524, Miss = 5462, Miss_rate = 0.989, Pending_hits = 4, Reservation_fails = 938
L2_cache_bank[9]: Access = 5462, Miss = 5462, Miss_rate = 1.000, Pending_hits = 0, Reservation_fails = 115
L2_cache_bank[10]: Access = 5524, Miss = 5462, Miss_rate = 0.989, Pending_hits = 0, Reservation_fails = 192
L2_cache_bank[11]: Access = 5462, Miss = 5462, Miss_rate = 1.000, Pending_hits = 0, Reservation_fails = 7
L2_total_cache_accesses = 65912
L2_total_cache_misses = 65552
L2_total_cache_miss_rate = 0.9945
L2_total_cache_pending_hits = 24
L2_total_cache_reservation_fails = 4513
L2_total_cache_breakdown:
	L2_cache_stats_breakdown[GLOBAL_ACC_R][MISS] = 65536
	L2_cache_stats_breakdown[GLOBAL_ACC_R][RESERVATION_FAIL] = 3952
	L2_cache_stats_breakdown[CONST_ACC_R][HIT] = 11
	L2_cache_stats_breakdown[CONST_ACC_R][HIT_RESERVED] = 3
	L2_cache_stats_breakdown[CONST_ACC_R][MISS] = 1
	L2_cache_stats_breakdown[CONST_ACC_R][RESERVATION_FAIL] = 108
	L2_cache_stats_breakdown[GLOBAL_ACC_W][HIT] = 241
	L2_cache_stats_breakdown[GLOBAL_ACC_W][HIT_RESERVED] = 7
	L2_cache_stats_breakdown[GLOBAL_ACC_W][MISS] = 8
	L2_cache_stats_breakdown[INST_ACC_R][HIT] = 84
	L2_cache_stats_breakdown[INST_ACC_R][HIT_RESERVED] = 14
	L2_cache_stats_breakdown[INST_ACC_R][MISS] = 7
	L2_cache_stats_breakdown[INST_ACC_R][RESERVATION_FAIL] = 453
L2_cache_data_port_util = 0.001
L2_cache_fill_port_util = 0.331

icnt_total_pkts_mem_to_simt=328506
icnt_total_pkts_simt_to_mem=66168
LD_mem_lat_dist  0 0 0 0 0 0 0 0 0 0 0 0 0 0 0 0 0 0 0 0 0 0 0 0 0 0 0
ST_mem_lat_dist  0 0 0 0 0 0 0 0 0 0 0 0 0 0 0 0 0 0 0 0 0 0 0 0 0 0 0
----------------------------Interconnect-DETAILS--------------------------------
Class 0:
Packet latency average = 17.4568
	minimum = 6
	maximum = 125
Network latency average = 14.2664
	minimum = 6
	maximum = 112
Slowest packet = 6109
Flit latency average = 14.0028
	minimum = 6
	maximum = 112
Slowest flit = 55556
Fragmentation average = 0
	minimum = 0
	maximum = 0
Injected packet rate average = 0.0740348
	minimum = 0.0624744 (at node 0)
	maximum = 0.0837642 (at node 16)
Accepted packet rate average = 0.0740348
	minimum = 0.0624744 (at node 0)
	maximum = 0.0837642 (at node 16)
Injected flit rate average = 0.221656
	minimum = 0.062717 (at node 0)
	maximum = 0.417077 (at node 15)
Accepted flit rate average= 0.221656
	minimum = 0.0828241 (at node 20)
	maximum = 0.350221 (at node 2)
Injected packet length average = 2.99395
Accepted packet length average = 2.99395
Total in-flight flits = 0 (0 measured)
====== Overall Traffic Statistics ======
====== Traffic class 0 ======
Packet latency average = 17.4568 (1 samples)
	minimum = 6 (1 samples)
	maximum = 125 (1 samples)
Network latency average = 14.2664 (1 samples)
	minimum = 6 (1 samples)
	maximum = 112 (1 samples)
Flit latency average = 14.0028 (1 samples)
	minimum = 6 (1 samples)
	maximum = 112 (1 samples)
Fragmentation average = 0 (1 samples)
	minimum = 0 (1 samples)
	maximum = 0 (1 samples)
Injected packet rate average = 0.0740348 (1 samples)
	minimum = 0.0624744 (1 samples)
	maximum = 0.0837642 (1 samples)
Accepted packet rate average = 0.0740348 (1 samples)
	minimum = 0.0624744 (1 samples)
	maximum = 0.0837642 (1 samples)
Injected flit rate average = 0.221656 (1 samples)
	minimum = 0.062717 (1 samples)
	maximum = 0.417077 (1 samples)
Accepted flit rate average = 0.221656 (1 samples)
	minimum = 0.0828241 (1 samples)
	maximum = 0.350221 (1 samples)
Injected packet size average = 2.99395 (1 samples)
Accepted packet size average = 2.99395 (1 samples)
Hops average = 1 (1 samples)
----------------------------END-of-Interconnect-DETAILS-------------------------
GPGPU-Sim API: Stream Manager State


gpgpu_simulation_time = 0 days, 0 hrs, 1 min, 36 sec (96 sec)
gpgpu_simulation_rate = 254600 (inst/sec)
gpgpu_simulation_rate = 686 (cycle/sec)
GPGPU-Sim: detected inactive GPU simulation thread
GPU time: 94647.859375 msecs.
Reading back GPU result...
Checking GPU results...
..running CPU scalar product calculation
...comparing the results
L1 error: 3.070748E-08
TEST PASSED
Shutting down...
