

        *** GPGPU-Sim Simulator Version 3.2.2  [build 0] ***


GPGPU-Sim PTX: simulation mode 0 (can change with PTX_SIM_MODE_FUNC environment variable:
               1=functional simulation only, 0=detailed performance simulator)
GPGPU-Sim: Configuration options:

-network_mode                           1 # Interconnection network mode
-inter_config_file   config_fermi_islip.icnt # Interconnection network config file
-gpgpu_ptx_use_cuobjdump                    1 # Use cuobjdump to extract ptx and sass from binaries
-gpgpu_experimental_lib_support                    0 # Try to extract code from cuda libraries [Broken because of unknown cudaGetExportTable]
-gpgpu_ptx_convert_to_ptxplus                    0 # Convert SASS (native ISA) to ptxplus and run ptxplus
-gpgpu_ptx_force_max_capability                   20 # Force maximum compute capability
-gpgpu_ptx_inst_debug_to_file                    0 # Dump executed instructions' debug information to file
-gpgpu_ptx_inst_debug_file       inst_debug.txt # Executed instructions' debug output file
-gpgpu_ptx_inst_debug_thread_uid                    1 # Thread UID for executed instructions' debug output
-gpgpu_simd_model                       1 # 1 = post-dominator
-gpgpu_shader_core_pipeline              1536:32 # shader core pipeline config, i.e., {<nthread>:<warpsize>}
-gpgpu_tex_cache:l1  4:128:24,L:R:m:N:L,F:128:4,128:2 # per-shader L1 texture cache  (READ-ONLY) config  {<nsets>:<bsize>:<assoc>,<rep>:<wr>:<alloc>:<wr_alloc>,<mshr>:<N>:<merge>,<mq>:<rf>}
-gpgpu_const_cache:l1 64:64:2,L:R:f:N:L,A:2:32,4 # per-shader L1 constant memory cache  (READ-ONLY) config  {<nsets>:<bsize>:<assoc>,<rep>:<wr>:<alloc>:<wr_alloc>,<mshr>:<N>:<merge>,<mq>} 
-gpgpu_cache:il1     4:128:4,L:R:f:N:L,A:2:32,4 # shader L1 instruction cache config  {<nsets>:<bsize>:<assoc>,<rep>:<wr>:<alloc>:<wr_alloc>,<mshr>:<N>:<merge>,<mq>} 
-gpgpu_cache:dl1     64:128:2,L:L:m:N:H,A:32:8,8 # per-shader L1 data cache config  {<nsets>:<bsize>:<assoc>,<rep>:<wr>:<alloc>:<wr_alloc>,<mshr>:<N>:<merge>,<mq> | none}
-gpgpu_cache:dl1PrefL1                 none # per-shader L1 data cache config  {<nsets>:<bsize>:<assoc>,<rep>:<wr>:<alloc>:<wr_alloc>,<mshr>:<N>:<merge>,<mq> | none}
-gpgpu_cache:dl1PreShared                 none # per-shader L1 data cache config  {<nsets>:<bsize>:<assoc>,<rep>:<wr>:<alloc>:<wr_alloc>,<mshr>:<N>:<merge>,<mq> | none}
-gmem_skip_L1D                          0 # global memory access skip L1D cache (implements -Xptxas -dlcm=cg, default=no skip)
-gpgpu_perfect_mem                      0 # enable perfect memory mode (no cache miss)
-n_regfile_gating_group                    4 # group of lanes that should be read/written together)
-gpgpu_clock_gated_reg_file                    0 # enable clock gated reg file for power calculations
-gpgpu_clock_gated_lanes                    0 # enable clock gated lanes for power calculations
-gpgpu_shader_registers                32768 # Number of registers per shader core. Limits number of concurrent CTAs. (default 8192)
-gpgpu_shader_cta                       8 # Maximum number of concurrent CTAs in shader (default 8)
-gpgpu_num_cta_barriers                   16 # Maximum number of named barriers per CTA (default 16)
-gpgpu_n_clusters                      15 # number of processing clusters
-gpgpu_n_cores_per_cluster                    1 # number of simd cores per cluster
-gpgpu_n_cluster_ejection_buffer_size                    8 # number of packets in ejection buffer
-gpgpu_n_ldst_response_buffer_size                    2 # number of response packets in ld/st unit ejection buffer
-gpgpu_shmem_size                   16384 # Size of shared memory per shader core (default 16kB)
-gpgpu_shmem_size                   49152 # Size of shared memory per shader core (default 16kB)
-gpgpu_shmem_size_PrefL1                16384 # Size of shared memory per shader core (default 16kB)
-gpgpu_shmem_size_PrefShared                16384 # Size of shared memory per shader core (default 16kB)
-gpgpu_shmem_num_banks                   32 # Number of banks in the shared memory in each shader core (default 16)
-gpgpu_shmem_limited_broadcast                    0 # Limit shared memory to do one broadcast per cycle (default on)
-gpgpu_shmem_warp_parts                    1 # Number of portions a warp is divided into for shared memory bank conflict check 
-gpgpu_warpdistro_shader                   -1 # Specify which shader core to collect the warp size distribution from
-gpgpu_warp_issue_shader                    0 # Specify which shader core to collect the warp issue distribution from
-gpgpu_local_mem_map                    1 # Mapping from local memory space address to simulated GPU physical address space (default = enabled)
-gpgpu_num_reg_banks                   16 # Number of register banks (default = 8)
-gpgpu_reg_bank_use_warp_id                    0 # Use warp ID in mapping registers to banks (default = off)
-gpgpu_operand_collector_num_units_sp                    6 # number of collector units (default = 4)
-gpgpu_operand_collector_num_units_sfu                    8 # number of collector units (default = 4)
-gpgpu_operand_collector_num_units_mem                    2 # number of collector units (default = 2)
-gpgpu_operand_collector_num_units_gen                    0 # number of collector units (default = 0)
-gpgpu_operand_collector_num_in_ports_sp                    2 # number of collector unit in ports (default = 1)
-gpgpu_operand_collector_num_in_ports_sfu                    1 # number of collector unit in ports (default = 1)
-gpgpu_operand_collector_num_in_ports_mem                    1 # number of collector unit in ports (default = 1)
-gpgpu_operand_collector_num_in_ports_gen                    0 # number of collector unit in ports (default = 0)
-gpgpu_operand_collector_num_out_ports_sp                    2 # number of collector unit in ports (default = 1)
-gpgpu_operand_collector_num_out_ports_sfu                    1 # number of collector unit in ports (default = 1)
-gpgpu_operand_collector_num_out_ports_mem                    1 # number of collector unit in ports (default = 1)
-gpgpu_operand_collector_num_out_ports_gen                    0 # number of collector unit in ports (default = 0)
-gpgpu_coalesce_arch                   13 # Coalescing arch (default = 13, anything else is off for now)
-gpgpu_num_sched_per_core                    2 # Number of warp schedulers per core
-gpgpu_max_insn_issue_per_warp                    1 # Max number of instructions that can be issued per warp in one cycle by scheduler
-gpgpu_simt_core_sim_order                    1 # Select the simulation order of cores in a cluster (0=Fix, 1=Round-Robin)
-gpgpu_pipeline_widths        2,1,1,2,1,1,2 # Pipeline widths ID_OC_SP,ID_OC_SFU,ID_OC_MEM,OC_EX_SP,OC_EX_SFU,OC_EX_MEM,EX_WB
-gpgpu_num_sp_units                     2 # Number of SP units (default=1)
-gpgpu_num_sfu_units                    1 # Number of SF units (default=1)
-gpgpu_num_mem_units                    1 # Number if ldst units (default=1) WARNING: not hooked up to anything
-gpgpu_scheduler                      gto # Scheduler configuration: < lrr | gto | two_level_active > If two_level_active:<num_active_warps>:<inner_prioritization>:<outer_prioritization>For complete list of prioritization values see shader.h enum scheduler_prioritization_typeDefault: gto
-gpgpu_dram_scheduler                    1 # 0 = fifo, 1 = FR-FCFS (defaul)
-gpgpu_dram_partition_queues              8:8:8:8 # i2$:$2d:d2$:$2i
-l2_ideal                               0 # Use a ideal L2 cache that always hit
-gpgpu_cache:dl2     64:128:8,L:B:m:W:L,A:32:4,4:0,32 # unified banked L2 data cache config  {<nsets>:<bsize>:<assoc>,<rep>:<wr>:<alloc>:<wr_alloc>,<mshr>:<N>:<merge>,<mq>}
-gpgpu_cache:dl2_texture_only                    0 # L2 cache used for texture only
-gpgpu_n_mem                            6 # number of memory modules (e.g. memory controllers) in gpu
-gpgpu_n_sub_partition_per_mchannel                    2 # number of memory subpartition in each memory module
-gpgpu_n_mem_per_ctrlr                    2 # number of memory chips per memory controller
-gpgpu_memlatency_stat                   14 # track and display latency statistics 0x2 enables MC, 0x4 enables queue logs
-gpgpu_frfcfs_dram_sched_queue_size                   16 # 0 = unlimited (default); # entries per chip
-gpgpu_dram_return_queue_size                  116 # 0 = unlimited (default); # entries per chip
-gpgpu_dram_buswidth                    4 # default = 4 bytes (8 bytes per cycle at DDR)
-gpgpu_dram_burst_length                    8 # Burst length of each DRAM request (default = 4 data bus cycle)
-dram_data_command_freq_ratio                    4 # Frequency ratio between DRAM data bus and command bus (default = 2 times, i.e. DDR)
-gpgpu_dram_timing_opt nbk=16:CCD=2:RRD=6:RCD=12:RAS=28:RP=12:RC=40: CL=12:WL=4:CDLR=5:WR=12:nbkgrp=4:CCDL=3:RTPL=2 # DRAM timing parameters = {nbk:tCCD:tRRD:tRCD:tRAS:tRP:tRC:CL:WL:tCDLR:tWR:nbkgrp:tCCDL:tRTPL}
-rop_latency                          120 # ROP queue latency (default 85)
-dram_latency                         100 # DRAM latency (default 30)
-gpgpu_mem_addr_mapping dramid@8;00000000.00000000.00000000.00000000.0000RRRR.RRRRRRRR.BBBCCCCB.CCSSSSSS # mapping memory address to dram model {dramid@<start bit>;<memory address map>}
-gpgpu_mem_addr_test                    0 # run sweep test to check address mapping for aliased address
-gpgpu_mem_address_mask                    1 # 0 = old addressing mask, 1 = new addressing mask, 2 = new add. mask + flipped bank sel and chip sel bits
-gpuwattch_xml_file  gpuwattch_gtx480.xml # GPUWattch XML file
-power_simulation_enabled                    1 # Turn on power simulator (1=On, 0=Off)
-power_per_cycle_dump                    0 # Dump detailed power output each cycle
-power_trace_enabled                    0 # produce a file for the power trace (1=On, 0=Off)
-power_trace_zlevel                     6 # Compression level of the power trace output log (0=no comp, 9=highest)
-steady_power_levels_enabled                    0 # produce a file for the steady power levels (1=On, 0=Off)
-steady_state_definition                  8:4 # allowed deviation:number of samples
-gpgpu_max_cycle                        0 # terminates gpu simulation early (0 = no limit)
-gpgpu_max_insn                         0 # terminates gpu simulation early (0 = no limit)
-gpgpu_max_cta                          0 # terminates gpu simulation early (0 = no limit)
-gpgpu_runtime_stat                   500 # display runtime statistics such as dram utilization {<freq>:<flag>}
-liveness_message_freq                    1 # Minimum number of seconds between simulation liveness messages (0 = always print)
-gpgpu_flush_l1_cache                    0 # Flush L1 cache at the end of each kernel call
-gpgpu_flush_l2_cache                    0 # Flush L2 cache at the end of each kernel call
-gpgpu_deadlock_detect                    1 # Stop the simulation at deadlock (1=on (default), 0=off)
-gpgpu_ptx_instruction_classification                    0 # if enabled will classify ptx instruction types per kernel (Max 255 kernels now)
-gpgpu_ptx_sim_mode                     0 # Select between Performance (default) or Functional simulation (1)
-gpgpu_clock_domains 700.0:700.0:700.0:924.0 # Clock Domain Frequencies in MhZ {<Core Clock>:<ICNT Clock>:<L2 Clock>:<DRAM Clock>}
-gpgpu_max_concurrent_kernel                    8 # maximum kernels that can run concurrently on GPU
-gpgpu_cflog_interval                    0 # Interval between each snapshot in control flow logger
-visualizer_enabled                     0 # Turn on visualizer output (1=On, 0=Off)
-visualizer_outputfile                 NULL # Specifies the output log file for visualizer
-visualizer_zlevel                      6 # Compression level of the visualizer output log (0=no comp, 9=highest)
-trace_enabled                          0 # Turn on traces
-trace_components                    none # comma seperated list of traces to enable. Complete list found in trace_streams.tup. Default none
-trace_sampling_core                    0 # The core which is printed using CORE_DPRINTF. Default 0
-trace_sampling_memory_partition                   -1 # The memory partition which is printed using MEMPART_DPRINTF. Default -1 (i.e. all)
-enable_ptx_file_line_stats                    1 # Turn on PTX source line statistic profiling. (1 = On)
-ptx_line_stats_filename gpgpu_inst_stats.txt # Output file for PTX source line statistics.
-save_embedded_ptx                      0 # saves ptx files embedded in binary as <n>.ptx
-keep                                   0 # keep intermediate files created by GPGPU-Sim when interfacing with external programs
-gpgpu_ptx_save_converted_ptxplus                    0 # Saved converted ptxplus to a file
-ptx_opcode_latency_int         4,13,4,5,145 # Opcode latencies for integers <ADD,MAX,MUL,MAD,DIV>Default 1,1,19,25,145
-ptx_opcode_latency_fp          4,13,4,5,39 # Opcode latencies for single precision floating points <ADD,MAX,MUL,MAD,DIV>Default 1,1,1,1,30
-ptx_opcode_latency_dp         8,19,8,8,330 # Opcode latencies for double precision floating points <ADD,MAX,MUL,MAD,DIV>Default 8,8,8,8,335
-ptx_opcode_initiation_int            1,2,2,1,8 # Opcode initiation intervals for integers <ADD,MAX,MUL,MAD,DIV>Default 1,1,4,4,32
-ptx_opcode_initiation_fp            1,2,1,1,4 # Opcode initiation intervals for single precision floating points <ADD,MAX,MUL,MAD,DIV>Default 1,1,1,1,5
-ptx_opcode_initiation_dp         8,16,8,8,130 # Opcode initiation intervals for double precision floating points <ADD,MAX,MUL,MAD,DIV>Default 8,8,8,8,130
DRAM Timing Options:
nbk                                    16 # number of banks
CCD                                     2 # column to column delay
RRD                                     6 # minimal delay between activation of rows in different banks
RCD                                    12 # row to column delay
RAS                                    28 # time needed to activate row
RP                                     12 # time needed to precharge (deactivate) row
RC                                     40 # row cycle time
CDLR                                    5 # switching from write to read (changes tWTR)
WR                                     12 # last data-in to row precharge
CL                                     12 # CAS latency
WL                                      4 # Write latency
nbkgrp                                  4 # number of bank groups
CCDL                                    3 # column to column delay between accesses to different bank groups
RTPL                                    2 # read to precharge delay between accesses to different bank groups
Total number of memory sub partition = 12
addr_dec_mask[CHIP]  = 0000000000000000 	high:64 low:0
addr_dec_mask[BK]    = 000000000000e100 	high:16 low:8
addr_dec_mask[ROW]   = 000000000fff0000 	high:28 low:16
addr_dec_mask[COL]   = 0000000000001eff 	high:13 low:0
addr_dec_mask[BURST] = 000000000000003f 	high:6 low:0
sub_partition_id_mask = 0000000000000100
GPGPU-Sim uArch: clock freqs: 700000000.000000:700000000.000000:700000000.000000:924000000.000000
GPGPU-Sim uArch: clock periods: 0.00000000142857142857:0.00000000142857142857:0.00000000142857142857:0.00000000108225108225
*** Initializing Memory Statistics ***
GPGPU-Sim uArch: interconnect node map (shaderID+MemID to icntID)
GPGPU-Sim uArch: Memory nodes ID start from index: 15
GPGPU-Sim uArch:    0   1   2   3   4
GPGPU-Sim uArch:    5   6   7   8   9
GPGPU-Sim uArch:   10  11  12  13  14
GPGPU-Sim uArch:   15  16  17  18  19
GPGPU-Sim uArch:   20  21  22  23  24
GPGPU-Sim uArch:   25  26
GPGPU-Sim uArch: interconnect node reverse map (icntID to shaderID+MemID)
GPGPU-Sim uArch: Memory nodes start from ID: 15
GPGPU-Sim uArch:    0   1   2   3   4
GPGPU-Sim uArch:    5   6   7   8   9
GPGPU-Sim uArch:   10  11  12  13  14
GPGPU-Sim uArch:   15  16  17  18  19
GPGPU-Sim uArch:   20  21  22  23  24
GPGPU-Sim uArch:   25  26
db8fd71b22e5f9e87a0df9a155b78fdf  /home/scratch/adwait/applications/benchmarks/CUDA/KMN/gpgpu_ptx_sim__KMN
GPGPU-Sim uArch: performance model initialization complete.
GPGPU-Sim PTX: __cudaRegisterFatBinary, fat_cubin_handle = 1, filename=kmeans_cuda.cu
self exe links to: /home/scratch/adwait/applications/benchmarks/CUDA/KMN/gpgpu_ptx_sim__KMN
Running md5sum using "md5sum /home/scratch/adwait/applications/benchmarks/CUDA/KMN/gpgpu_ptx_sim__KMN "
Running cuobjdump using "$CUDA_INSTALL_PATH/bin/cuobjdump -ptx -elf -sass /home/scratch/adwait/applications/benchmarks/CUDA/KMN/gpgpu_ptx_sim__KMN > _cuobjdump_complete_output_NRN0QJ"
Parsing file _cuobjdump_complete_output_NRN0QJ
######### cuobjdump parser ########
## Adding new section ELF
Adding arch: sm_20
Adding identifier: kmeans_cuda.cu
## Adding new section PTX
Adding ptx filename: _cuobjdump_1.ptx
Adding arch: sm_20
Adding identifier: kmeans_cuda.cu
Done parsing!!!
GPGPU-Sim PTX: __cudaRegisterFunction _Z11kmeansPointPfiiiPiS_S_S0_ : hostFun 0x0x402c28, fat_cubin_handle = 1
GPGPU-Sim PTX: instruction assembly for function '_Z14invert_mappingPfS_ii'...   done.
GPGPU-Sim PTX: finding reconvergence points for '_Z14invert_mappingPfS_ii'...
GPGPU-Sim PTX: Finding dominators for '_Z14invert_mappingPfS_ii'...
GPGPU-Sim PTX: Finding immediate dominators for '_Z14invert_mappingPfS_ii'...
GPGPU-Sim PTX: Finding postdominators for '_Z14invert_mappingPfS_ii'...
GPGPU-Sim PTX: Finding immediate postdominators for '_Z14invert_mappingPfS_ii'...
GPGPU-Sim PTX: pre-decoding instructions for '_Z14invert_mappingPfS_ii'...
GPGPU-Sim PTX: reconvergence points for _Z14invert_mappingPfS_ii...
GPGPU-Sim PTX:  1 (potential) branch divergence @  PC=0x038 (_1.ptx:70) @%p1 bra $Lt_0_2050;
GPGPU-Sim PTX:    immediate post dominator      @  PC=0x110 (_1.ptx:103) exit;
GPGPU-Sim PTX:  2 (potential) branch divergence @  PC=0x058 (_1.ptx:74) @%p2 bra $Lt_0_2562;
GPGPU-Sim PTX:    immediate post dominator      @  PC=0x110 (_1.ptx:103) exit;
GPGPU-Sim PTX:  3 (potential) branch divergence @  PC=0x108 (_1.ptx:99) @%p3 bra $Lt_0_3074;
GPGPU-Sim PTX:    immediate post dominator      @  PC=0x110 (_1.ptx:103) exit;
GPGPU-Sim PTX: ... end of reconvergence points for _Z14invert_mappingPfS_ii
GPGPU-Sim PTX: ... done pre-decoding instructions for '_Z14invert_mappingPfS_ii'.
GPGPU-Sim PTX: instruction assembly for function '_Z11kmeansPointPfiiiPiS_S_S0_'...   done.
GPGPU-Sim PTX: finding reconvergence points for '_Z11kmeansPointPfiiiPiS_S_S0_'...
GPGPU-Sim PTX: Finding dominators for '_Z11kmeansPointPfiiiPiS_S_S0_'...
GPGPU-Sim PTX: Finding immediate dominators for '_Z11kmeansPointPfiiiPiS_S_S0_'...
GPGPU-Sim PTX: Finding postdominators for '_Z11kmeansPointPfiiiPiS_S_S0_'...
GPGPU-Sim PTX: Finding immediate postdominators for '_Z11kmeansPointPfiiiPiS_S_S0_'...
GPGPU-Sim PTX: pre-decoding instructions for '_Z11kmeansPointPfiiiPiS_S_S0_'...
GPGPU-Sim PTX: reconvergence points for _Z11kmeansPointPfiiiPiS_S_S0_...
GPGPU-Sim PTX:  1 (potential) branch divergence @  PC=0x180 (_1.ptx:136) @!%p1 bra $Lt_1_4866;
GPGPU-Sim PTX:    immediate post dominator      @  PC=0x320 (_1.ptx:202) @!%p1 bra $Lt_1_7682;
GPGPU-Sim PTX:  2 (potential) branch divergence @  PC=0x1a0 (_1.ptx:140) @%p2 bra $Lt_1_8194;
GPGPU-Sim PTX:    immediate post dominator      @  PC=0x320 (_1.ptx:202) @!%p1 bra $Lt_1_7682;
GPGPU-Sim PTX:  3 (potential) branch divergence @  PC=0x1e8 (_1.ptx:151) @!%p3 bra $Lt_1_8450;
GPGPU-Sim PTX:    immediate post dominator      @  PC=0x2c8 (_1.ptx:185) setp.lt.f32 %p5, %f2, %f1;
GPGPU-Sim PTX:  4 (potential) branch divergence @  PC=0x2b0 (_1.ptx:180) @%p4 bra $Lt_1_6402;
GPGPU-Sim PTX:    immediate post dominator      @  PC=0x2b8 (_1.ptx:181) bra.uni $Lt_1_5890;
GPGPU-Sim PTX:  5 (potential) branch divergence @  PC=0x2b8 (_1.ptx:181) bra.uni $Lt_1_5890;
GPGPU-Sim PTX:    immediate post dominator      @  PC=0x2c8 (_1.ptx:185) setp.lt.f32 %p5, %f2, %f1;
GPGPU-Sim PTX:  6 (potential) branch divergence @  PC=0x2d0 (_1.ptx:186) @!%p5 bra $Lt_1_6914;
GPGPU-Sim PTX:    immediate post dominator      @  PC=0x2e8 (_1.ptx:192) add.s32 %r18, %r18, 1;
GPGPU-Sim PTX:  7 (potential) branch divergence @  PC=0x2f8 (_1.ptx:194) @%p6 bra $Lt_1_5634;
GPGPU-Sim PTX:    immediate post dominator      @  PC=0x300 (_1.ptx:195) bra.uni $Lt_1_4610;
GPGPU-Sim PTX:  8 (potential) branch divergence @  PC=0x300 (_1.ptx:195) bra.uni $Lt_1_4610;
GPGPU-Sim PTX:    immediate post dominator      @  PC=0x320 (_1.ptx:202) @!%p1 bra $Lt_1_7682;
GPGPU-Sim PTX:  9 (potential) branch divergence @  PC=0x310 (_1.ptx:198) bra.uni $Lt_1_4610;
GPGPU-Sim PTX:    immediate post dominator      @  PC=0x320 (_1.ptx:202) @!%p1 bra $Lt_1_7682;
GPGPU-Sim PTX: 10 (potential) branch divergence @  PC=0x320 (_1.ptx:202) @!%p1 bra $Lt_1_7682;
GPGPU-Sim PTX:    immediate post dominator      @  PC=0x350 (_1.ptx:211) exit;
GPGPU-Sim PTX: ... end of reconvergence points for _Z11kmeansPointPfiiiPiS_S_S0_
GPGPU-Sim PTX: ... done pre-decoding instructions for '_Z11kmeansPointPfiiiPiS_S_S0_'.
GPGPU-Sim PTX: allocating global region for "t_features" from 0x100 to 0x104 (global memory space)
GPGPU-Sim PTX: allocating global region for "t_features_flipped" from 0x104 to 0x108 (global memory space)
GPGPU-Sim PTX: allocating global region for "t_clusters" from 0x108 to 0x10c (global memory space)
GPGPU-Sim PTX: finished parsing EMBEDDED .ptx file _1.ptx
Adding _cuobjdump_1.ptx with cubin handle 1
GPGPU-Sim PTX: extracting embedded .ptx to temporary file "_ptx_ARVnsp"
Running: cat _ptx_ARVnsp | sed 's/.version 1.5/.version 1.4/' | sed 's/, texmode_independent//' | sed 's/\(\.extern \.const\[1\] .b8 \w\+\)\[\]/\1\[1\]/' | sed 's/const\[.\]/const\[0\]/g' > _ptx2_6WB134
GPGPU-Sim PTX: generating ptxinfo using "$CUDA_INSTALL_PATH/bin/ptxas --gpu-name=sm_20 -v _ptx2_6WB134 --output-file  /dev/null 2> _ptx_ARVnspinfo"
GPGPU-Sim PTX: Kernel '_Z11kmeansPointPfiiiPiS_S_S0_' : regs=15, lmem=0, smem=0, cmem=88
GPGPU-Sim PTX: Kernel '_Z14invert_mappingPfS_ii' : regs=10, lmem=0, smem=0, cmem=56
GPGPU-Sim PTX: removing ptxinfo using "rm -f _ptx_ARVnsp _ptx2_6WB134 _ptx_ARVnspinfo"
GPGPU-Sim PTX: loading globals with explicit initializers... 
GPGPU-Sim PTX: finished loading globals (0 bytes total).
GPGPU-Sim PTX: loading constants with explicit initializers...  done.
GPGPU-Sim PTX: __cudaRegisterFunction _Z14invert_mappingPfS_ii : hostFun 0x0x402a98, fat_cubin_handle = 1
GPGPU-Sim PTX: in __cudaRegisterTexture:
GPGPU-Sim PTX:   int dim = 1
GPGPU-Sim PTX:   int norm = 0
GPGPU-Sim PTX:   int ext = 0
GPGPU-Sim PTX:   Execution warning: Not finished implementing "void __cudaRegisterTexture(void**, const textureReference*, const void**, const char*, int, int, int)"
GPGPU-Sim PTX: in __cudaRegisterTexture:
GPGPU-Sim PTX:   int dim = 1
GPGPU-Sim PTX:   int norm = 0
GPGPU-Sim PTX:   int ext = 0
GPGPU-Sim PTX:   Execution warning: Not finished implementing "void __cudaRegisterTexture(void**, const textureReference*, const void**, const char*, int, int, int)"
GPGPU-Sim PTX: in __cudaRegisterTexture:
GPGPU-Sim PTX:   int dim = 1
GPGPU-Sim PTX:   int norm = 0
GPGPU-Sim PTX:   int ext = 0
GPGPU-Sim PTX:   Execution warning: Not finished implementing "void __cudaRegisterTexture(void**, const textureReference*, const void**, const char*, int, int, int)"

I/O completed

Number of objects: 28672
Number of features: 138

GPGPU-Sim PTX: cudaLaunch for 0x0x402c28 (mode=performance simulation) on stream 0
GPGPU-Sim PTX: pushing kernel '_Z11kmeansPointPfiiiPiS_S_S0_' to stream 0, gridDim= (11,11,1) blockDim = (256,1,1) 
kernel '_Z11kmeansPointPfiiiPiS_S_S0_' transfer to GPU hardware scheduler
GPGPU-Sim uArch: Shader 1 bind to kernel 1 '_Z11kmeansPointPfiiiPiS_S_S0_'
GPGPU-Sim uArch: CTA/core = 6, limited by: threads
GPGPU-Sim uArch: core:  1, cta: 0 initialized @(1,0)
GPGPU-Sim uArch: Shader 2 bind to kernel 1 '_Z11kmeansPointPfiiiPiS_S_S0_'
GPGPU-Sim uArch: core:  2, cta: 0 initialized @(1,0)
GPGPU-Sim uArch: Shader 3 bind to kernel 1 '_Z11kmeansPointPfiiiPiS_S_S0_'
GPGPU-Sim uArch: core:  3, cta: 0 initialized @(1,0)
GPGPU-Sim uArch: Shader 4 bind to kernel 1 '_Z11kmeansPointPfiiiPiS_S_S0_'
GPGPU-Sim uArch: core:  4, cta: 0 initialized @(1,0)
GPGPU-Sim uArch: Shader 5 bind to kernel 1 '_Z11kmeansPointPfiiiPiS_S_S0_'
GPGPU-Sim uArch: core:  5, cta: 0 initialized @(1,0)
GPGPU-Sim uArch: Shader 6 bind to kernel 1 '_Z11kmeansPointPfiiiPiS_S_S0_'
GPGPU-Sim uArch: core:  6, cta: 0 initialized @(1,0)
GPGPU-Sim uArch: Shader 7 bind to kernel 1 '_Z11kmeansPointPfiiiPiS_S_S0_'
GPGPU-Sim uArch: core:  7, cta: 0 initialized @(1,0)
GPGPU-Sim uArch: Shader 8 bind to kernel 1 '_Z11kmeansPointPfiiiPiS_S_S0_'
GPGPU-Sim uArch: core:  8, cta: 0 initialized @(1,0)
GPGPU-Sim uArch: Shader 9 bind to kernel 1 '_Z11kmeansPointPfiiiPiS_S_S0_'
GPGPU-Sim uArch: core:  9, cta: 0 initialized @(1,0)
GPGPU-Sim uArch: Shader 10 bind to kernel 1 '_Z11kmeansPointPfiiiPiS_S_S0_'
GPGPU-Sim uArch: core: 10, cta: 0 initialized @(1,0)
GPGPU-Sim uArch: Shader 11 bind to kernel 1 '_Z11kmeansPointPfiiiPiS_S_S0_'
GPGPU-Sim uArch: core: 11, cta: 0 initialized @(1,0)
GPGPU-Sim uArch: Shader 12 bind to kernel 1 '_Z11kmeansPointPfiiiPiS_S_S0_'
GPGPU-Sim uArch: core: 12, cta: 0 initialized @(1,0)
GPGPU-Sim uArch: Shader 13 bind to kernel 1 '_Z11kmeansPointPfiiiPiS_S_S0_'
GPGPU-Sim uArch: core: 13, cta: 0 initialized @(1,0)
GPGPU-Sim uArch: Shader 14 bind to kernel 1 '_Z11kmeansPointPfiiiPiS_S_S0_'
GPGPU-Sim uArch: core: 14, cta: 0 initialized @(1,0)
GPGPU-Sim uArch: Shader 0 bind to kernel 1 '_Z11kmeansPointPfiiiPiS_S_S0_'
GPGPU-Sim uArch: core:  0, cta: 0 initialized @(1,0)
GPGPU-Sim uArch: core:  1, cta: 1 initialized @(2,0)
GPGPU-Sim uArch: core:  2, cta: 1 initialized @(2,0)
GPGPU-Sim uArch: core:  3, cta: 1 initialized @(2,0)
GPGPU-Sim uArch: core:  4, cta: 1 initialized @(2,0)
GPGPU-Sim uArch: core:  5, cta: 1 initialized @(2,0)
GPGPU-Sim uArch: core:  6, cta: 1 initialized @(2,0)
GPGPU-Sim uArch: core:  7, cta: 1 initialized @(2,0)
GPGPU-Sim uArch: core:  8, cta: 1 initialized @(2,0)
GPGPU-Sim uArch: core:  9, cta: 1 initialized @(2,0)
GPGPU-Sim uArch: core: 10, cta: 1 initialized @(2,0)
GPGPU-Sim uArch: core: 11, cta: 1 initialized @(2,0)
GPGPU-Sim uArch: core: 12, cta: 1 initialized @(2,0)
GPGPU-Sim uArch: core: 13, cta: 1 initialized @(2,0)
GPGPU-Sim uArch: core: 14, cta: 1 initialized @(2,0)
GPGPU-Sim uArch: core:  0, cta: 1 initialized @(2,0)
GPGPU-Sim uArch: core:  1, cta: 2 initialized @(3,0)
GPGPU-Sim uArch: core:  2, cta: 2 initialized @(3,0)
GPGPU-Sim uArch: core:  3, cta: 2 initialized @(3,0)
GPGPU-Sim uArch: core:  4, cta: 2 initialized @(3,0)
GPGPU-Sim uArch: core:  5, cta: 2 initialized @(3,0)
GPGPU-Sim uArch: core:  6, cta: 2 initialized @(3,0)
GPGPU-Sim uArch: core:  7, cta: 2 initialized @(3,0)
GPGPU-Sim uArch: core:  8, cta: 2 initialized @(3,0)
GPGPU-Sim uArch: core:  9, cta: 2 initialized @(3,0)
GPGPU-Sim uArch: core: 10, cta: 2 initialized @(3,0)
GPGPU-Sim uArch: core: 11, cta: 2 initialized @(3,0)
GPGPU-Sim uArch: core: 12, cta: 2 initialized @(3,0)
GPGPU-Sim uArch: core: 13, cta: 2 initialized @(3,0)
GPGPU-Sim uArch: core: 14, cta: 2 initialized @(3,0)
GPGPU-Sim uArch: core:  0, cta: 2 initialized @(3,0)
GPGPU-Sim uArch: core:  1, cta: 3 initialized @(4,0)
GPGPU-Sim uArch: core:  2, cta: 3 initialized @(4,0)
GPGPU-Sim uArch: core:  3, cta: 3 initialized @(4,0)
GPGPU-Sim uArch: core:  4, cta: 3 initialized @(4,0)
GPGPU-Sim uArch: core:  5, cta: 3 initialized @(4,0)
GPGPU-Sim uArch: core:  6, cta: 3 initialized @(4,0)
GPGPU-Sim uArch: core:  7, cta: 3 initialized @(4,0)
GPGPU-Sim uArch: core:  8, cta: 3 initialized @(4,0)
GPGPU-Sim uArch: core:  9, cta: 3 initialized @(4,0)
GPGPU-Sim uArch: core: 10, cta: 3 initialized @(4,0)
GPGPU-Sim uArch: core: 11, cta: 3 initialized @(4,0)
GPGPU-Sim uArch: core: 12, cta: 3 initialized @(4,0)
GPGPU-Sim uArch: core: 13, cta: 3 initialized @(4,0)
GPGPU-Sim uArch: core: 14, cta: 3 initialized @(4,0)
GPGPU-Sim uArch: core:  0, cta: 3 initialized @(4,0)
GPGPU-Sim uArch: core:  1, cta: 4 initialized @(5,0)
GPGPU-Sim uArch: core:  2, cta: 4 initialized @(5,0)
GPGPU-Sim uArch: core:  3, cta: 4 initialized @(5,0)
GPGPU-Sim uArch: core:  4, cta: 4 initialized @(5,0)
GPGPU-Sim uArch: core:  5, cta: 4 initialized @(5,0)
GPGPU-Sim uArch: core:  6, cta: 4 initialized @(5,0)
GPGPU-Sim uArch: core:  7, cta: 4 initialized @(5,0)
GPGPU-Sim uArch: core:  8, cta: 4 initialized @(5,0)
GPGPU-Sim uArch: core:  9, cta: 4 initialized @(5,0)
GPGPU-Sim uArch: core: 10, cta: 4 initialized @(5,0)
GPGPU-Sim uArch: core: 11, cta: 4 initialized @(5,0)
GPGPU-Sim uArch: core: 12, cta: 4 initialized @(5,0)
GPGPU-Sim uArch: core: 13, cta: 4 initialized @(5,0)
GPGPU-Sim uArch: core: 14, cta: 4 initialized @(5,0)
GPGPU-Sim uArch: core:  0, cta: 4 initialized @(5,0)
GPGPU-Sim uArch: core:  1, cta: 5 initialized @(6,0)
GPGPU-Sim uArch: core:  2, cta: 5 initialized @(6,0)
GPGPU-Sim uArch: core:  3, cta: 5 initialized @(6,0)
GPGPU-Sim uArch: core:  4, cta: 5 initialized @(6,0)
GPGPU-Sim uArch: core:  5, cta: 5 initialized @(6,0)
GPGPU-Sim uArch: core:  6, cta: 5 initialized @(6,0)
GPGPU-Sim uArch: core:  7, cta: 5 initialized @(6,0)
GPGPU-Sim uArch: core:  8, cta: 5 initialized @(6,0)
GPGPU-Sim uArch: core:  9, cta: 5 initialized @(6,0)
GPGPU-Sim uArch: core: 10, cta: 5 initialized @(6,0)
GPGPU-Sim uArch: core: 11, cta: 5 initialized @(6,0)
GPGPU-Sim uArch: core: 12, cta: 5 initialized @(6,0)
GPGPU-Sim uArch: core: 13, cta: 5 initialized @(6,0)
GPGPU-Sim uArch: core: 14, cta: 5 initialized @(6,0)
GPGPU-Sim uArch: core:  0, cta: 5 initialized @(6,0)
GPGPU-Sim PTX: 100000 instructions simulated : ctaid=(7,7,0) tid=(159,0,0)
GPGPU-Sim uArch: cycles simulated: 500  inst.: 147456 (ipc=294.9) sim_rate=36864 (inst/sec) elapsed = 0:0:00:04 / Tue Apr 16 16:55:30 2019
GPGPU-Sim PTX: 200000 instructions simulated : ctaid=(2,2,0) tid=(223,0,0)
GPGPU-Sim PTX: 300000 instructions simulated : ctaid=(3,5,0) tid=(255,0,0)
GPGPU-Sim uArch: cycles simulated: 1000  inst.: 299520 (ipc=299.5) sim_rate=59904 (inst/sec) elapsed = 0:0:00:05 / Tue Apr 16 16:55:31 2019
GPGPU-Sim PTX: 400000 instructions simulated : ctaid=(9,7,0) tid=(191,0,0)
GPGPU-Sim PTX: 500000 instructions simulated : ctaid=(9,4,0) tid=(191,0,0)
GPGPU-Sim PTX: 600000 instructions simulated : ctaid=(3,5,0) tid=(223,0,0)
GPGPU-Sim uArch: cycles simulated: 1500  inst.: 615616 (ipc=410.4) sim_rate=102602 (inst/sec) elapsed = 0:0:00:06 / Tue Apr 16 16:55:32 2019
GPGPU-Sim PTX: 700000 instructions simulated : ctaid=(1,4,0) tid=(159,0,0)
GPGPU-Sim PTX: 800000 instructions simulated : ctaid=(4,5,0) tid=(31,0,0)
GPGPU-Sim PTX: 900000 instructions simulated : ctaid=(2,1,0) tid=(191,0,0)
GPGPU-Sim uArch: cycles simulated: 2000  inst.: 850304 (ipc=425.2) sim_rate=121472 (inst/sec) elapsed = 0:0:00:07 / Tue Apr 16 16:55:33 2019
GPGPU-Sim uArch: cycles simulated: 3000  inst.: 854560 (ipc=284.9) sim_rate=106820 (inst/sec) elapsed = 0:0:00:08 / Tue Apr 16 16:55:34 2019
GPGPU-Sim uArch: cycles simulated: 4000  inst.: 864864 (ipc=216.2) sim_rate=96096 (inst/sec) elapsed = 0:0:00:09 / Tue Apr 16 16:55:35 2019
GPGPU-Sim uArch: cycles simulated: 5500  inst.: 884576 (ipc=160.8) sim_rate=88457 (inst/sec) elapsed = 0:0:00:10 / Tue Apr 16 16:55:36 2019
GPGPU-Sim uArch: cycles simulated: 6500  inst.: 899296 (ipc=138.4) sim_rate=81754 (inst/sec) elapsed = 0:0:00:11 / Tue Apr 16 16:55:37 2019
GPGPU-Sim uArch: cycles simulated: 8000  inst.: 918912 (ipc=114.9) sim_rate=76576 (inst/sec) elapsed = 0:0:00:12 / Tue Apr 16 16:55:38 2019
GPGPU-Sim PTX: 1000000 instructions simulated : ctaid=(7,2,0) tid=(159,0,0)
GPGPU-Sim uArch: cycles simulated: 9000  inst.: 933056 (ipc=103.7) sim_rate=71773 (inst/sec) elapsed = 0:0:00:13 / Tue Apr 16 16:55:39 2019
GPGPU-Sim uArch: cycles simulated: 10000  inst.: 944384 (ipc=94.4) sim_rate=67456 (inst/sec) elapsed = 0:0:00:14 / Tue Apr 16 16:55:40 2019
GPGPU-Sim uArch: cycles simulated: 11500  inst.: 969632 (ipc=84.3) sim_rate=64642 (inst/sec) elapsed = 0:0:00:15 / Tue Apr 16 16:55:41 2019
GPGPU-Sim uArch: cycles simulated: 12500  inst.: 986944 (ipc=79.0) sim_rate=61684 (inst/sec) elapsed = 0:0:00:16 / Tue Apr 16 16:55:42 2019
GPGPU-Sim uArch: cycles simulated: 14000  inst.: 1012512 (ipc=72.3) sim_rate=59559 (inst/sec) elapsed = 0:0:00:17 / Tue Apr 16 16:55:43 2019
GPGPU-Sim PTX: 1100000 instructions simulated : ctaid=(5,1,0) tid=(159,0,0)
GPGPU-Sim uArch: cycles simulated: 15000  inst.: 1030880 (ipc=68.7) sim_rate=57271 (inst/sec) elapsed = 0:0:00:18 / Tue Apr 16 16:55:44 2019
GPGPU-Sim uArch: cycles simulated: 16500  inst.: 1057216 (ipc=64.1) sim_rate=55642 (inst/sec) elapsed = 0:0:00:19 / Tue Apr 16 16:55:45 2019
GPGPU-Sim uArch: cycles simulated: 17500  inst.: 1075776 (ipc=61.5) sim_rate=53788 (inst/sec) elapsed = 0:0:00:20 / Tue Apr 16 16:55:46 2019
GPGPU-Sim uArch: cycles simulated: 18500  inst.: 1089856 (ipc=58.9) sim_rate=51897 (inst/sec) elapsed = 0:0:00:21 / Tue Apr 16 16:55:47 2019
GPGPU-Sim uArch: cycles simulated: 20000  inst.: 1123552 (ipc=56.2) sim_rate=51070 (inst/sec) elapsed = 0:0:00:22 / Tue Apr 16 16:55:48 2019
GPGPU-Sim PTX: 1200000 instructions simulated : ctaid=(7,2,0) tid=(95,0,0)
GPGPU-Sim uArch: cycles simulated: 21000  inst.: 1141120 (ipc=54.3) sim_rate=49613 (inst/sec) elapsed = 0:0:00:23 / Tue Apr 16 16:55:49 2019
GPGPU-Sim uArch: cycles simulated: 22500  inst.: 1162240 (ipc=51.7) sim_rate=48426 (inst/sec) elapsed = 0:0:00:24 / Tue Apr 16 16:55:50 2019
GPGPU-Sim uArch: cycles simulated: 23500  inst.: 1183392 (ipc=50.4) sim_rate=47335 (inst/sec) elapsed = 0:0:00:25 / Tue Apr 16 16:55:51 2019
GPGPU-Sim uArch: cycles simulated: 25000  inst.: 1209216 (ipc=48.4) sim_rate=46508 (inst/sec) elapsed = 0:0:00:26 / Tue Apr 16 16:55:52 2019
GPGPU-Sim uArch: cycles simulated: 26000  inst.: 1225632 (ipc=47.1) sim_rate=45393 (inst/sec) elapsed = 0:0:00:27 / Tue Apr 16 16:55:53 2019
GPGPU-Sim PTX: 1300000 instructions simulated : ctaid=(9,0,0) tid=(95,0,0)
GPGPU-Sim uArch: cycles simulated: 27500  inst.: 1252800 (ipc=45.6) sim_rate=44742 (inst/sec) elapsed = 0:0:00:28 / Tue Apr 16 16:55:54 2019
GPGPU-Sim uArch: cycles simulated: 28500  inst.: 1270656 (ipc=44.6) sim_rate=43815 (inst/sec) elapsed = 0:0:00:29 / Tue Apr 16 16:55:55 2019
GPGPU-Sim uArch: cycles simulated: 30000  inst.: 1296576 (ipc=43.2) sim_rate=43219 (inst/sec) elapsed = 0:0:00:30 / Tue Apr 16 16:55:56 2019
GPGPU-Sim uArch: cycles simulated: 31000  inst.: 1313952 (ipc=42.4) sim_rate=42385 (inst/sec) elapsed = 0:0:00:31 / Tue Apr 16 16:55:57 2019
GPGPU-Sim PTX: 1400000 instructions simulated : ctaid=(0,2,0) tid=(223,0,0)
GPGPU-Sim uArch: cycles simulated: 32000  inst.: 1333568 (ipc=41.7) sim_rate=41674 (inst/sec) elapsed = 0:0:00:32 / Tue Apr 16 16:55:58 2019
GPGPU-Sim uArch: cycles simulated: 33500  inst.: 1356032 (ipc=40.5) sim_rate=41091 (inst/sec) elapsed = 0:0:00:33 / Tue Apr 16 16:55:59 2019
GPGPU-Sim uArch: cycles simulated: 34500  inst.: 1379040 (ipc=40.0) sim_rate=40560 (inst/sec) elapsed = 0:0:00:34 / Tue Apr 16 16:56:00 2019
GPGPU-Sim uArch: cycles simulated: 36000  inst.: 1400096 (ipc=38.9) sim_rate=40002 (inst/sec) elapsed = 0:0:00:35 / Tue Apr 16 16:56:01 2019
GPGPU-Sim uArch: cycles simulated: 37000  inst.: 1418464 (ipc=38.3) sim_rate=39401 (inst/sec) elapsed = 0:0:00:36 / Tue Apr 16 16:56:02 2019
GPGPU-Sim PTX: 1500000 instructions simulated : ctaid=(2,0,0) tid=(223,0,0)
GPGPU-Sim uArch: cycles simulated: 38000  inst.: 1437248 (ipc=37.8) sim_rate=38844 (inst/sec) elapsed = 0:0:00:37 / Tue Apr 16 16:56:03 2019
GPGPU-Sim uArch: cycles simulated: 39500  inst.: 1461280 (ipc=37.0) sim_rate=38454 (inst/sec) elapsed = 0:0:00:38 / Tue Apr 16 16:56:04 2019
GPGPU-Sim uArch: cycles simulated: 40500  inst.: 1479328 (ipc=36.5) sim_rate=37931 (inst/sec) elapsed = 0:0:00:39 / Tue Apr 16 16:56:05 2019
GPGPU-Sim uArch: cycles simulated: 42000  inst.: 1502304 (ipc=35.8) sim_rate=37557 (inst/sec) elapsed = 0:0:00:40 / Tue Apr 16 16:56:06 2019
GPGPU-Sim uArch: cycles simulated: 43000  inst.: 1518304 (ipc=35.3) sim_rate=37031 (inst/sec) elapsed = 0:0:00:41 / Tue Apr 16 16:56:07 2019
GPGPU-Sim PTX: 1600000 instructions simulated : ctaid=(6,0,0) tid=(95,0,0)
GPGPU-Sim uArch: cycles simulated: 44500  inst.: 1546016 (ipc=34.7) sim_rate=36809 (inst/sec) elapsed = 0:0:00:42 / Tue Apr 16 16:56:08 2019
GPGPU-Sim uArch: cycles simulated: 45500  inst.: 1565216 (ipc=34.4) sim_rate=36400 (inst/sec) elapsed = 0:0:00:43 / Tue Apr 16 16:56:09 2019
GPGPU-Sim uArch: cycles simulated: 47000  inst.: 1589888 (ipc=33.8) sim_rate=36133 (inst/sec) elapsed = 0:0:00:44 / Tue Apr 16 16:56:10 2019
GPGPU-Sim uArch: cycles simulated: 48000  inst.: 1614208 (ipc=33.6) sim_rate=35871 (inst/sec) elapsed = 0:0:00:45 / Tue Apr 16 16:56:11 2019
GPGPU-Sim PTX: 1700000 instructions simulated : ctaid=(2,1,0) tid=(63,0,0)
GPGPU-Sim uArch: cycles simulated: 49000  inst.: 1631296 (ipc=33.3) sim_rate=35462 (inst/sec) elapsed = 0:0:00:46 / Tue Apr 16 16:56:12 2019
GPGPU-Sim uArch: cycles simulated: 50500  inst.: 1658720 (ipc=32.8) sim_rate=35291 (inst/sec) elapsed = 0:0:00:47 / Tue Apr 16 16:56:13 2019
GPGPU-Sim uArch: cycles simulated: 51500  inst.: 1676256 (ipc=32.5) sim_rate=34922 (inst/sec) elapsed = 0:0:00:48 / Tue Apr 16 16:56:14 2019
GPGPU-Sim uArch: cycles simulated: 53000  inst.: 1702816 (ipc=32.1) sim_rate=34751 (inst/sec) elapsed = 0:0:00:49 / Tue Apr 16 16:56:15 2019
GPGPU-Sim uArch: cycles simulated: 54000  inst.: 1720416 (ipc=31.9) sim_rate=34408 (inst/sec) elapsed = 0:0:00:50 / Tue Apr 16 16:56:16 2019
GPGPU-Sim PTX: 1800000 instructions simulated : ctaid=(1,0,0) tid=(31,0,0)
GPGPU-Sim uArch: cycles simulated: 55500  inst.: 1750784 (ipc=31.5) sim_rate=34329 (inst/sec) elapsed = 0:0:00:51 / Tue Apr 16 16:56:17 2019
GPGPU-Sim uArch: cycles simulated: 56500  inst.: 1768256 (ipc=31.3) sim_rate=34004 (inst/sec) elapsed = 0:0:00:52 / Tue Apr 16 16:56:18 2019
GPGPU-Sim uArch: cycles simulated: 57500  inst.: 1788960 (ipc=31.1) sim_rate=33753 (inst/sec) elapsed = 0:0:00:53 / Tue Apr 16 16:56:19 2019
GPGPU-Sim uArch: cycles simulated: 59000  inst.: 1816512 (ipc=30.8) sim_rate=33639 (inst/sec) elapsed = 0:0:00:54 / Tue Apr 16 16:56:20 2019
GPGPU-Sim PTX: 1900000 instructions simulated : ctaid=(6,1,0) tid=(223,0,0)
GPGPU-Sim uArch: cycles simulated: 60000  inst.: 1839008 (ipc=30.7) sim_rate=33436 (inst/sec) elapsed = 0:0:00:55 / Tue Apr 16 16:56:21 2019
GPGPU-Sim uArch: cycles simulated: 61500  inst.: 1870176 (ipc=30.4) sim_rate=33396 (inst/sec) elapsed = 0:0:00:56 / Tue Apr 16 16:56:22 2019
GPGPU-Sim uArch: cycles simulated: 62500  inst.: 1889696 (ipc=30.2) sim_rate=33152 (inst/sec) elapsed = 0:0:00:57 / Tue Apr 16 16:56:23 2019
GPGPU-Sim uArch: cycles simulated: 63500  inst.: 1905600 (ipc=30.0) sim_rate=32855 (inst/sec) elapsed = 0:0:00:58 / Tue Apr 16 16:56:24 2019
GPGPU-Sim PTX: 2000000 instructions simulated : ctaid=(3,1,0) tid=(223,0,0)
GPGPU-Sim uArch: cycles simulated: 64500  inst.: 1927520 (ipc=29.9) sim_rate=32669 (inst/sec) elapsed = 0:0:00:59 / Tue Apr 16 16:56:25 2019
GPGPU-Sim uArch: cycles simulated: 66000  inst.: 1952064 (ipc=29.6) sim_rate=32534 (inst/sec) elapsed = 0:0:01:00 / Tue Apr 16 16:56:26 2019
GPGPU-Sim uArch: cycles simulated: 67000  inst.: 1967968 (ipc=29.4) sim_rate=32261 (inst/sec) elapsed = 0:0:01:01 / Tue Apr 16 16:56:27 2019
GPGPU-Sim uArch: cycles simulated: 68000  inst.: 1987072 (ipc=29.2) sim_rate=32049 (inst/sec) elapsed = 0:0:01:02 / Tue Apr 16 16:56:28 2019
GPGPU-Sim uArch: cycles simulated: 69500  inst.: 2013024 (ipc=29.0) sim_rate=31952 (inst/sec) elapsed = 0:0:01:03 / Tue Apr 16 16:56:29 2019
GPGPU-Sim PTX: 2100000 instructions simulated : ctaid=(0,1,0) tid=(127,0,0)
GPGPU-Sim uArch: cycles simulated: 70500  inst.: 2032192 (ipc=28.8) sim_rate=31753 (inst/sec) elapsed = 0:0:01:04 / Tue Apr 16 16:56:30 2019
GPGPU-Sim uArch: cycles simulated: 72000  inst.: 2053568 (ipc=28.5) sim_rate=31593 (inst/sec) elapsed = 0:0:01:05 / Tue Apr 16 16:56:31 2019
GPGPU-Sim uArch: cycles simulated: 73000  inst.: 2076576 (ipc=28.4) sim_rate=31463 (inst/sec) elapsed = 0:0:01:06 / Tue Apr 16 16:56:32 2019
GPGPU-Sim uArch: cycles simulated: 74000  inst.: 2090464 (ipc=28.2) sim_rate=31200 (inst/sec) elapsed = 0:0:01:07 / Tue Apr 16 16:56:33 2019
GPGPU-Sim uArch: cycles simulated: 75500  inst.: 2115296 (ipc=28.0) sim_rate=31107 (inst/sec) elapsed = 0:0:01:08 / Tue Apr 16 16:56:34 2019
GPGPU-Sim PTX: 2200000 instructions simulated : ctaid=(9,1,0) tid=(95,0,0)
GPGPU-Sim uArch: cycles simulated: 76500  inst.: 2133408 (ipc=27.9) sim_rate=30918 (inst/sec) elapsed = 0:0:01:09 / Tue Apr 16 16:56:35 2019
GPGPU-Sim uArch: cycles simulated: 78000  inst.: 2162592 (ipc=27.7) sim_rate=30894 (inst/sec) elapsed = 0:0:01:10 / Tue Apr 16 16:56:36 2019
GPGPU-Sim uArch: cycles simulated: 79000  inst.: 2176928 (ipc=27.6) sim_rate=30660 (inst/sec) elapsed = 0:0:01:11 / Tue Apr 16 16:56:37 2019
GPGPU-Sim uArch: cycles simulated: 80500  inst.: 2208128 (ipc=27.4) sim_rate=30668 (inst/sec) elapsed = 0:0:01:12 / Tue Apr 16 16:56:38 2019
GPGPU-Sim uArch: cycles simulated: 81500  inst.: 2223872 (ipc=27.3) sim_rate=30464 (inst/sec) elapsed = 0:0:01:13 / Tue Apr 16 16:56:39 2019
GPGPU-Sim PTX: 2300000 instructions simulated : ctaid=(6,0,0) tid=(159,0,0)
GPGPU-Sim uArch: cycles simulated: 82500  inst.: 2241472 (ipc=27.2) sim_rate=30290 (inst/sec) elapsed = 0:0:01:14 / Tue Apr 16 16:56:40 2019
GPGPU-Sim uArch: cycles simulated: 84000  inst.: 2270816 (ipc=27.0) sim_rate=30277 (inst/sec) elapsed = 0:0:01:15 / Tue Apr 16 16:56:41 2019
GPGPU-Sim uArch: cycles simulated: 85000  inst.: 2288832 (ipc=26.9) sim_rate=30116 (inst/sec) elapsed = 0:0:01:16 / Tue Apr 16 16:56:42 2019
GPGPU-Sim uArch: cycles simulated: 86500  inst.: 2321408 (ipc=26.8) sim_rate=30148 (inst/sec) elapsed = 0:0:01:17 / Tue Apr 16 16:56:43 2019
GPGPU-Sim PTX: 2400000 instructions simulated : ctaid=(9,0,0) tid=(223,0,0)
GPGPU-Sim uArch: cycles simulated: 87500  inst.: 2337056 (ipc=26.7) sim_rate=29962 (inst/sec) elapsed = 0:0:01:18 / Tue Apr 16 16:56:44 2019
GPGPU-Sim uArch: cycles simulated: 88500  inst.: 2356960 (ipc=26.6) sim_rate=29834 (inst/sec) elapsed = 0:0:01:19 / Tue Apr 16 16:56:45 2019
GPGPU-Sim uArch: cycles simulated: 90000  inst.: 2386720 (ipc=26.5) sim_rate=29834 (inst/sec) elapsed = 0:0:01:20 / Tue Apr 16 16:56:46 2019
GPGPU-Sim uArch: cycles simulated: 91000  inst.: 2406464 (ipc=26.4) sim_rate=29709 (inst/sec) elapsed = 0:0:01:21 / Tue Apr 16 16:56:47 2019
GPGPU-Sim PTX: 2500000 instructions simulated : ctaid=(5,2,0) tid=(31,0,0)
GPGPU-Sim uArch: cycles simulated: 92500  inst.: 2438592 (ipc=26.4) sim_rate=29738 (inst/sec) elapsed = 0:0:01:22 / Tue Apr 16 16:56:48 2019
GPGPU-Sim uArch: cycles simulated: 93500  inst.: 2455520 (ipc=26.3) sim_rate=29584 (inst/sec) elapsed = 0:0:01:23 / Tue Apr 16 16:56:49 2019
GPGPU-Sim uArch: cycles simulated: 95000  inst.: 2482304 (ipc=26.1) sim_rate=29551 (inst/sec) elapsed = 0:0:01:24 / Tue Apr 16 16:56:50 2019
GPGPU-Sim uArch: cycles simulated: 96000  inst.: 2500224 (ipc=26.0) sim_rate=29414 (inst/sec) elapsed = 0:0:01:25 / Tue Apr 16 16:56:51 2019
GPGPU-Sim uArch: cycles simulated: 97000  inst.: 2517088 (ipc=25.9) sim_rate=29268 (inst/sec) elapsed = 0:0:01:26 / Tue Apr 16 16:56:52 2019
GPGPU-Sim PTX: 2600000 instructions simulated : ctaid=(2,3,0) tid=(31,0,0)
GPGPU-Sim uArch: cycles simulated: 98500  inst.: 2545792 (ipc=25.8) sim_rate=29261 (inst/sec) elapsed = 0:0:01:27 / Tue Apr 16 16:56:53 2019
GPGPU-Sim uArch: cycles simulated: 99500  inst.: 2565536 (ipc=25.8) sim_rate=29153 (inst/sec) elapsed = 0:0:01:28 / Tue Apr 16 16:56:54 2019
GPGPU-Sim uArch: cycles simulated: 101000  inst.: 2595104 (ipc=25.7) sim_rate=29158 (inst/sec) elapsed = 0:0:01:29 / Tue Apr 16 16:56:55 2019
GPGPU-Sim uArch: cycles simulated: 102000  inst.: 2614240 (ipc=25.6) sim_rate=29047 (inst/sec) elapsed = 0:0:01:30 / Tue Apr 16 16:56:56 2019
GPGPU-Sim PTX: 2700000 instructions simulated : ctaid=(2,0,0) tid=(31,0,0)
GPGPU-Sim uArch: cycles simulated: 103500  inst.: 2644832 (ipc=25.6) sim_rate=29064 (inst/sec) elapsed = 0:0:01:31 / Tue Apr 16 16:56:57 2019
GPGPU-Sim uArch: cycles simulated: 104500  inst.: 2664480 (ipc=25.5) sim_rate=28961 (inst/sec) elapsed = 0:0:01:32 / Tue Apr 16 16:56:58 2019
GPGPU-Sim uArch: cycles simulated: 106000  inst.: 2694496 (ipc=25.4) sim_rate=28973 (inst/sec) elapsed = 0:0:01:33 / Tue Apr 16 16:56:59 2019
GPGPU-Sim uArch: cycles simulated: 107000  inst.: 2714272 (ipc=25.4) sim_rate=28875 (inst/sec) elapsed = 0:0:01:34 / Tue Apr 16 16:57:00 2019
GPGPU-Sim PTX: 2800000 instructions simulated : ctaid=(0,1,0) tid=(191,0,0)
GPGPU-Sim uArch: cycles simulated: 108000  inst.: 2730848 (ipc=25.3) sim_rate=28745 (inst/sec) elapsed = 0:0:01:35 / Tue Apr 16 16:57:01 2019
GPGPU-Sim uArch: cycles simulated: 109500  inst.: 2760000 (ipc=25.2) sim_rate=28750 (inst/sec) elapsed = 0:0:01:36 / Tue Apr 16 16:57:02 2019
GPGPU-Sim uArch: cycles simulated: 110500  inst.: 2778048 (ipc=25.1) sim_rate=28639 (inst/sec) elapsed = 0:0:01:37 / Tue Apr 16 16:57:03 2019
GPGPU-Sim uArch: cycles simulated: 112000  inst.: 2808736 (ipc=25.1) sim_rate=28660 (inst/sec) elapsed = 0:0:01:38 / Tue Apr 16 16:57:04 2019
GPGPU-Sim uArch: cycles simulated: 113000  inst.: 2826752 (ipc=25.0) sim_rate=28553 (inst/sec) elapsed = 0:0:01:39 / Tue Apr 16 16:57:05 2019
GPGPU-Sim PTX: 2900000 instructions simulated : ctaid=(6,0,0) tid=(95,0,0)
GPGPU-Sim uArch: cycles simulated: 114000  inst.: 2847264 (ipc=25.0) sim_rate=28472 (inst/sec) elapsed = 0:0:01:40 / Tue Apr 16 16:57:06 2019
GPGPU-Sim uArch: cycles simulated: 115500  inst.: 2880832 (ipc=24.9) sim_rate=28523 (inst/sec) elapsed = 0:0:01:41 / Tue Apr 16 16:57:07 2019
GPGPU-Sim uArch: cycles simulated: 116500  inst.: 2898432 (ipc=24.9) sim_rate=28416 (inst/sec) elapsed = 0:0:01:42 / Tue Apr 16 16:57:08 2019
GPGPU-Sim uArch: cycles simulated: 118000  inst.: 2926368 (ipc=24.8) sim_rate=28411 (inst/sec) elapsed = 0:0:01:43 / Tue Apr 16 16:57:09 2019
GPGPU-Sim PTX: 3000000 instructions simulated : ctaid=(0,1,0) tid=(159,0,0)
GPGPU-Sim uArch: cycles simulated: 119000  inst.: 2945504 (ipc=24.8) sim_rate=28322 (inst/sec) elapsed = 0:0:01:44 / Tue Apr 16 16:57:10 2019
GPGPU-Sim uArch: cycles simulated: 120500  inst.: 2974400 (ipc=24.7) sim_rate=28327 (inst/sec) elapsed = 0:0:01:45 / Tue Apr 16 16:57:11 2019
GPGPU-Sim uArch: cycles simulated: 121500  inst.: 2988832 (ipc=24.6) sim_rate=28196 (inst/sec) elapsed = 0:0:01:46 / Tue Apr 16 16:57:12 2019
GPGPU-Sim uArch: cycles simulated: 122500  inst.: 3010144 (ipc=24.6) sim_rate=28132 (inst/sec) elapsed = 0:0:01:47 / Tue Apr 16 16:57:13 2019
GPGPU-Sim PTX: 3100000 instructions simulated : ctaid=(7,0,0) tid=(223,0,0)
GPGPU-Sim uArch: cycles simulated: 124000  inst.: 3035744 (ipc=24.5) sim_rate=28108 (inst/sec) elapsed = 0:0:01:48 / Tue Apr 16 16:57:14 2019
GPGPU-Sim uArch: cycles simulated: 125000  inst.: 3053600 (ipc=24.4) sim_rate=28014 (inst/sec) elapsed = 0:0:01:49 / Tue Apr 16 16:57:15 2019
GPGPU-Sim uArch: cycles simulated: 126500  inst.: 3080800 (ipc=24.4) sim_rate=28007 (inst/sec) elapsed = 0:0:01:50 / Tue Apr 16 16:57:16 2019
GPGPU-Sim uArch: cycles simulated: 128000  inst.: 3106080 (ipc=24.3) sim_rate=27982 (inst/sec) elapsed = 0:0:01:51 / Tue Apr 16 16:57:17 2019
GPGPU-Sim uArch: cycles simulated: 129000  inst.: 3123744 (ipc=24.2) sim_rate=27890 (inst/sec) elapsed = 0:0:01:52 / Tue Apr 16 16:57:18 2019
GPGPU-Sim PTX: 3200000 instructions simulated : ctaid=(0,1,0) tid=(95,0,0)
GPGPU-Sim uArch: cycles simulated: 130500  inst.: 3150144 (ipc=24.1) sim_rate=27877 (inst/sec) elapsed = 0:0:01:53 / Tue Apr 16 16:57:19 2019
GPGPU-Sim uArch: cycles simulated: 131500  inst.: 3172352 (ipc=24.1) sim_rate=27827 (inst/sec) elapsed = 0:0:01:54 / Tue Apr 16 16:57:20 2019
GPGPU-Sim uArch: cycles simulated: 132500  inst.: 3191680 (ipc=24.1) sim_rate=27753 (inst/sec) elapsed = 0:0:01:55 / Tue Apr 16 16:57:21 2019
GPGPU-Sim uArch: cycles simulated: 134000  inst.: 3216288 (ipc=24.0) sim_rate=27726 (inst/sec) elapsed = 0:0:01:56 / Tue Apr 16 16:57:22 2019
GPGPU-Sim PTX: 3300000 instructions simulated : ctaid=(6,0,0) tid=(159,0,0)
GPGPU-Sim uArch: cycles simulated: 135500  inst.: 3245408 (ipc=24.0) sim_rate=27738 (inst/sec) elapsed = 0:0:01:57 / Tue Apr 16 16:57:23 2019
GPGPU-Sim uArch: cycles simulated: 136500  inst.: 3264832 (ipc=23.9) sim_rate=27668 (inst/sec) elapsed = 0:0:01:58 / Tue Apr 16 16:57:24 2019
GPGPU-Sim uArch: cycles simulated: 137500  inst.: 3279264 (ipc=23.8) sim_rate=27556 (inst/sec) elapsed = 0:0:01:59 / Tue Apr 16 16:57:25 2019
GPGPU-Sim uArch: cycles simulated: 139000  inst.: 3312544 (ipc=23.8) sim_rate=27604 (inst/sec) elapsed = 0:0:02:00 / Tue Apr 16 16:57:26 2019
GPGPU-Sim uArch: cycles simulated: 140000  inst.: 3326976 (ipc=23.8) sim_rate=27495 (inst/sec) elapsed = 0:0:02:01 / Tue Apr 16 16:57:27 2019
GPGPU-Sim PTX: 3400000 instructions simulated : ctaid=(2,2,0) tid=(31,0,0)
GPGPU-Sim uArch: cycles simulated: 141500  inst.: 3351744 (ipc=23.7) sim_rate=27473 (inst/sec) elapsed = 0:0:02:02 / Tue Apr 16 16:57:28 2019
GPGPU-Sim uArch: cycles simulated: 142500  inst.: 3373504 (ipc=23.7) sim_rate=27426 (inst/sec) elapsed = 0:0:02:03 / Tue Apr 16 16:57:29 2019
GPGPU-Sim uArch: cycles simulated: 144000  inst.: 3392192 (ipc=23.6) sim_rate=27356 (inst/sec) elapsed = 0:0:02:04 / Tue Apr 16 16:57:30 2019
GPGPU-Sim uArch: cycles simulated: 145000  inst.: 3410432 (ipc=23.5) sim_rate=27283 (inst/sec) elapsed = 0:0:02:05 / Tue Apr 16 16:57:31 2019
GPGPU-Sim PTX: 3500000 instructions simulated : ctaid=(1,0,0) tid=(95,0,0)
GPGPU-Sim uArch: cycles simulated: 146500  inst.: 3438944 (ipc=23.5) sim_rate=27293 (inst/sec) elapsed = 0:0:02:06 / Tue Apr 16 16:57:32 2019
GPGPU-Sim uArch: cycles simulated: 147500  inst.: 3457184 (ipc=23.4) sim_rate=27221 (inst/sec) elapsed = 0:0:02:07 / Tue Apr 16 16:57:33 2019
GPGPU-Sim uArch: cycles simulated: 149000  inst.: 3483296 (ipc=23.4) sim_rate=27213 (inst/sec) elapsed = 0:0:02:08 / Tue Apr 16 16:57:34 2019
GPGPU-Sim uArch: cycles simulated: 150000  inst.: 3499648 (ipc=23.3) sim_rate=27129 (inst/sec) elapsed = 0:0:02:09 / Tue Apr 16 16:57:35 2019
GPGPU-Sim uArch: cycles simulated: 151000  inst.: 3525536 (ipc=23.3) sim_rate=27119 (inst/sec) elapsed = 0:0:02:10 / Tue Apr 16 16:57:36 2019
GPGPU-Sim PTX: 3600000 instructions simulated : ctaid=(4,1,0) tid=(95,0,0)
GPGPU-Sim uArch: cycles simulated: 152500  inst.: 3551040 (ipc=23.3) sim_rate=27107 (inst/sec) elapsed = 0:0:02:11 / Tue Apr 16 16:57:37 2019
GPGPU-Sim uArch: cycles simulated: 153500  inst.: 3569600 (ipc=23.3) sim_rate=27042 (inst/sec) elapsed = 0:0:02:12 / Tue Apr 16 16:57:38 2019
GPGPU-Sim uArch: cycles simulated: 155000  inst.: 3594304 (ipc=23.2) sim_rate=27024 (inst/sec) elapsed = 0:0:02:13 / Tue Apr 16 16:57:39 2019
GPGPU-Sim uArch: cycles simulated: 156000  inst.: 3613216 (ipc=23.2) sim_rate=26964 (inst/sec) elapsed = 0:0:02:14 / Tue Apr 16 16:57:40 2019
GPGPU-Sim PTX: 3700000 instructions simulated : ctaid=(0,0,0) tid=(31,0,0)
GPGPU-Sim uArch: cycles simulated: 157500  inst.: 3641792 (ipc=23.1) sim_rate=26976 (inst/sec) elapsed = 0:0:02:15 / Tue Apr 16 16:57:41 2019
GPGPU-Sim uArch: cycles simulated: 158500  inst.: 3654432 (ipc=23.1) sim_rate=26870 (inst/sec) elapsed = 0:0:02:16 / Tue Apr 16 16:57:42 2019
GPGPU-Sim uArch: cycles simulated: 160000  inst.: 3683008 (ipc=23.0) sim_rate=26883 (inst/sec) elapsed = 0:0:02:17 / Tue Apr 16 16:57:43 2019
GPGPU-Sim uArch: cycles simulated: 161000  inst.: 3700384 (ipc=23.0) sim_rate=26814 (inst/sec) elapsed = 0:0:02:18 / Tue Apr 16 16:57:44 2019
GPGPU-Sim PTX: 3800000 instructions simulated : ctaid=(8,1,0) tid=(159,0,0)
GPGPU-Sim uArch: cycles simulated: 162500  inst.: 3731808 (ipc=23.0) sim_rate=26847 (inst/sec) elapsed = 0:0:02:19 / Tue Apr 16 16:57:45 2019
GPGPU-Sim uArch: cycles simulated: 163500  inst.: 3749056 (ipc=22.9) sim_rate=26778 (inst/sec) elapsed = 0:0:02:20 / Tue Apr 16 16:57:46 2019
GPGPU-Sim uArch: cycles simulated: 164500  inst.: 3760544 (ipc=22.9) sim_rate=26670 (inst/sec) elapsed = 0:0:02:21 / Tue Apr 16 16:57:47 2019
GPGPU-Sim uArch: cycles simulated: 166000  inst.: 3788256 (ipc=22.8) sim_rate=26677 (inst/sec) elapsed = 0:0:02:22 / Tue Apr 16 16:57:48 2019
GPGPU-Sim uArch: cycles simulated: 167000  inst.: 3801216 (ipc=22.8) sim_rate=26581 (inst/sec) elapsed = 0:0:02:23 / Tue Apr 16 16:57:49 2019
GPGPU-Sim PTX: 3900000 instructions simulated : ctaid=(6,3,0) tid=(95,0,0)
GPGPU-Sim uArch: cycles simulated: 168500  inst.: 3837504 (ipc=22.8) sim_rate=26649 (inst/sec) elapsed = 0:0:02:24 / Tue Apr 16 16:57:50 2019
GPGPU-Sim uArch: cycles simulated: 169500  inst.: 3855872 (ipc=22.7) sim_rate=26592 (inst/sec) elapsed = 0:0:02:25 / Tue Apr 16 16:57:51 2019
GPGPU-Sim uArch: cycles simulated: 171000  inst.: 3876992 (ipc=22.7) sim_rate=26554 (inst/sec) elapsed = 0:0:02:26 / Tue Apr 16 16:57:52 2019
GPGPU-Sim uArch: cycles simulated: 172000  inst.: 3899296 (ipc=22.7) sim_rate=26525 (inst/sec) elapsed = 0:0:02:27 / Tue Apr 16 16:57:53 2019
GPGPU-Sim uArch: cycles simulated: 173500  inst.: 3923776 (ipc=22.6) sim_rate=26512 (inst/sec) elapsed = 0:0:02:28 / Tue Apr 16 16:57:54 2019
GPGPU-Sim PTX: 4000000 instructions simulated : ctaid=(0,2,0) tid=(223,0,0)
GPGPU-Sim uArch: cycles simulated: 174500  inst.: 3943360 (ipc=22.6) sim_rate=26465 (inst/sec) elapsed = 0:0:02:29 / Tue Apr 16 16:57:55 2019
GPGPU-Sim uArch: cycles simulated: 175500  inst.: 3961856 (ipc=22.6) sim_rate=26412 (inst/sec) elapsed = 0:0:02:30 / Tue Apr 16 16:57:56 2019
GPGPU-Sim uArch: cycles simulated: 177000  inst.: 3986688 (ipc=22.5) sim_rate=26401 (inst/sec) elapsed = 0:0:02:31 / Tue Apr 16 16:57:57 2019
GPGPU-Sim uArch: cycles simulated: 178000  inst.: 4001600 (ipc=22.5) sim_rate=26326 (inst/sec) elapsed = 0:0:02:32 / Tue Apr 16 16:57:58 2019
GPGPU-Sim PTX: 4100000 instructions simulated : ctaid=(4,0,0) tid=(95,0,0)
GPGPU-Sim uArch: cycles simulated: 179500  inst.: 4032544 (ipc=22.5) sim_rate=26356 (inst/sec) elapsed = 0:0:02:33 / Tue Apr 16 16:57:59 2019
GPGPU-Sim uArch: cycles simulated: 180500  inst.: 4051584 (ipc=22.4) sim_rate=26308 (inst/sec) elapsed = 0:0:02:34 / Tue Apr 16 16:58:00 2019
GPGPU-Sim uArch: cycles simulated: 182000  inst.: 4083744 (ipc=22.4) sim_rate=26346 (inst/sec) elapsed = 0:0:02:35 / Tue Apr 16 16:58:01 2019
GPGPU-Sim uArch: cycles simulated: 183000  inst.: 4099936 (ipc=22.4) sim_rate=26281 (inst/sec) elapsed = 0:0:02:36 / Tue Apr 16 16:58:02 2019
GPGPU-Sim uArch: cycles simulated: 184000  inst.: 4118048 (ipc=22.4) sim_rate=26229 (inst/sec) elapsed = 0:0:02:37 / Tue Apr 16 16:58:03 2019
GPGPU-Sim PTX: 4200000 instructions simulated : ctaid=(4,0,0) tid=(159,0,0)
GPGPU-Sim uArch: cycles simulated: 185500  inst.: 4148672 (ipc=22.4) sim_rate=26257 (inst/sec) elapsed = 0:0:02:38 / Tue Apr 16 16:58:04 2019
GPGPU-Sim uArch: cycles simulated: 186500  inst.: 4168544 (ipc=22.4) sim_rate=26217 (inst/sec) elapsed = 0:0:02:39 / Tue Apr 16 16:58:05 2019
GPGPU-Sim uArch: cycles simulated: 188000  inst.: 4199488 (ipc=22.3) sim_rate=26246 (inst/sec) elapsed = 0:0:02:40 / Tue Apr 16 16:58:06 2019
GPGPU-Sim uArch: cycles simulated: 189000  inst.: 4221408 (ipc=22.3) sim_rate=26219 (inst/sec) elapsed = 0:0:02:41 / Tue Apr 16 16:58:07 2019
GPGPU-Sim PTX: 4300000 instructions simulated : ctaid=(1,1,0) tid=(31,0,0)
GPGPU-Sim uArch: cycles simulated: 190500  inst.: 4248576 (ipc=22.3) sim_rate=26225 (inst/sec) elapsed = 0:0:02:42 / Tue Apr 16 16:58:08 2019
GPGPU-Sim uArch: cycles simulated: 191500  inst.: 4266560 (ipc=22.3) sim_rate=26175 (inst/sec) elapsed = 0:0:02:43 / Tue Apr 16 16:58:09 2019
GPGPU-Sim uArch: cycles simulated: 193000  inst.: 4297024 (ipc=22.3) sim_rate=26201 (inst/sec) elapsed = 0:0:02:44 / Tue Apr 16 16:58:10 2019
GPGPU-Sim uArch: cycles simulated: 194000  inst.: 4315744 (ipc=22.2) sim_rate=26156 (inst/sec) elapsed = 0:0:02:45 / Tue Apr 16 16:58:11 2019
GPGPU-Sim PTX: 4400000 instructions simulated : ctaid=(8,0,0) tid=(159,0,0)
GPGPU-Sim uArch: cycles simulated: 195000  inst.: 4334592 (ipc=22.2) sim_rate=26112 (inst/sec) elapsed = 0:0:02:46 / Tue Apr 16 16:58:12 2019
GPGPU-Sim uArch: cycles simulated: 196500  inst.: 4358048 (ipc=22.2) sim_rate=26096 (inst/sec) elapsed = 0:0:02:47 / Tue Apr 16 16:58:13 2019
GPGPU-Sim uArch: cycles simulated: 197500  inst.: 4377856 (ipc=22.2) sim_rate=26058 (inst/sec) elapsed = 0:0:02:48 / Tue Apr 16 16:58:14 2019
GPGPU-Sim uArch: cycles simulated: 199000  inst.: 4409888 (ipc=22.2) sim_rate=26094 (inst/sec) elapsed = 0:0:02:49 / Tue Apr 16 16:58:15 2019
GPGPU-Sim PTX: 4500000 instructions simulated : ctaid=(2,1,0) tid=(159,0,0)
GPGPU-Sim uArch: cycles simulated: 200000  inst.: 4431360 (ipc=22.2) sim_rate=26066 (inst/sec) elapsed = 0:0:02:50 / Tue Apr 16 16:58:16 2019
GPGPU-Sim uArch: cycles simulated: 201000  inst.: 4447264 (ipc=22.1) sim_rate=26007 (inst/sec) elapsed = 0:0:02:51 / Tue Apr 16 16:58:17 2019
GPGPU-Sim uArch: cycles simulated: 202500  inst.: 4473216 (ipc=22.1) sim_rate=26007 (inst/sec) elapsed = 0:0:02:52 / Tue Apr 16 16:58:18 2019
GPGPU-Sim uArch: cycles simulated: 203500  inst.: 4491520 (ipc=22.1) sim_rate=25962 (inst/sec) elapsed = 0:0:02:53 / Tue Apr 16 16:58:19 2019
GPGPU-Sim uArch: cycles simulated: 205000  inst.: 4521536 (ipc=22.1) sim_rate=25985 (inst/sec) elapsed = 0:0:02:54 / Tue Apr 16 16:58:20 2019
GPGPU-Sim PTX: 4600000 instructions simulated : ctaid=(0,0,0) tid=(127,0,0)
GPGPU-Sim uArch: cycles simulated: 206000  inst.: 4543744 (ipc=22.1) sim_rate=25964 (inst/sec) elapsed = 0:0:02:55 / Tue Apr 16 16:58:21 2019
GPGPU-Sim uArch: cycles simulated: 207500  inst.: 4572640 (ipc=22.0) sim_rate=25980 (inst/sec) elapsed = 0:0:02:56 / Tue Apr 16 16:58:22 2019
GPGPU-Sim uArch: cycles simulated: 208500  inst.: 4587296 (ipc=22.0) sim_rate=25916 (inst/sec) elapsed = 0:0:02:57 / Tue Apr 16 16:58:23 2019
GPGPU-Sim uArch: cycles simulated: 209500  inst.: 4605984 (ipc=22.0) sim_rate=25876 (inst/sec) elapsed = 0:0:02:58 / Tue Apr 16 16:58:24 2019
GPGPU-Sim PTX: 4700000 instructions simulated : ctaid=(3,1,0) tid=(95,0,0)
GPGPU-Sim uArch: cycles simulated: 211000  inst.: 4635936 (ipc=22.0) sim_rate=25899 (inst/sec) elapsed = 0:0:02:59 / Tue Apr 16 16:58:25 2019
GPGPU-Sim uArch: cycles simulated: 212000  inst.: 4654464 (ipc=22.0) sim_rate=25858 (inst/sec) elapsed = 0:0:03:00 / Tue Apr 16 16:58:26 2019
GPGPU-Sim uArch: cycles simulated: 213500  inst.: 4679936 (ipc=21.9) sim_rate=25856 (inst/sec) elapsed = 0:0:03:01 / Tue Apr 16 16:58:27 2019
GPGPU-Sim uArch: cycles simulated: 214500  inst.: 4703104 (ipc=21.9) sim_rate=25841 (inst/sec) elapsed = 0:0:03:02 / Tue Apr 16 16:58:28 2019
GPGPU-Sim PTX: 4800000 instructions simulated : ctaid=(9,1,0) tid=(95,0,0)
GPGPU-Sim uArch: cycles simulated: 216000  inst.: 4731232 (ipc=21.9) sim_rate=25853 (inst/sec) elapsed = 0:0:03:03 / Tue Apr 16 16:58:29 2019
GPGPU-Sim uArch: cycles simulated: 217000  inst.: 4750208 (ipc=21.9) sim_rate=25816 (inst/sec) elapsed = 0:0:03:04 / Tue Apr 16 16:58:30 2019
GPGPU-Sim uArch: cycles simulated: 218500  inst.: 4777440 (ipc=21.9) sim_rate=25824 (inst/sec) elapsed = 0:0:03:05 / Tue Apr 16 16:58:31 2019
GPGPU-Sim uArch: cycles simulated: 219500  inst.: 4799424 (ipc=21.9) sim_rate=25803 (inst/sec) elapsed = 0:0:03:06 / Tue Apr 16 16:58:32 2019
GPGPU-Sim uArch: cycles simulated: 220500  inst.: 4819872 (ipc=21.9) sim_rate=25774 (inst/sec) elapsed = 0:0:03:07 / Tue Apr 16 16:58:33 2019
GPGPU-Sim PTX: 4900000 instructions simulated : ctaid=(0,1,0) tid=(31,0,0)
GPGPU-Sim uArch: cycles simulated: 222000  inst.: 4850656 (ipc=21.8) sim_rate=25801 (inst/sec) elapsed = 0:0:03:08 / Tue Apr 16 16:58:34 2019
GPGPU-Sim uArch: cycles simulated: 223000  inst.: 4869600 (ipc=21.8) sim_rate=25765 (inst/sec) elapsed = 0:0:03:09 / Tue Apr 16 16:58:35 2019
GPGPU-Sim uArch: cycles simulated: 224500  inst.: 4898784 (ipc=21.8) sim_rate=25783 (inst/sec) elapsed = 0:0:03:10 / Tue Apr 16 16:58:36 2019
GPGPU-Sim uArch: cycles simulated: 225500  inst.: 4914688 (ipc=21.8) sim_rate=25731 (inst/sec) elapsed = 0:0:03:11 / Tue Apr 16 16:58:37 2019
GPGPU-Sim PTX: 5000000 instructions simulated : ctaid=(1,1,0) tid=(95,0,0)
GPGPU-Sim uArch: cycles simulated: 227000  inst.: 4944544 (ipc=21.8) sim_rate=25752 (inst/sec) elapsed = 0:0:03:12 / Tue Apr 16 16:58:38 2019
GPGPU-Sim uArch: cycles simulated: 228000  inst.: 4963296 (ipc=21.8) sim_rate=25716 (inst/sec) elapsed = 0:0:03:13 / Tue Apr 16 16:58:39 2019
GPGPU-Sim uArch: cycles simulated: 229000  inst.: 4983552 (ipc=21.8) sim_rate=25688 (inst/sec) elapsed = 0:0:03:14 / Tue Apr 16 16:58:40 2019
GPGPU-Sim uArch: cycles simulated: 230500  inst.: 5012864 (ipc=21.7) sim_rate=25706 (inst/sec) elapsed = 0:0:03:15 / Tue Apr 16 16:58:41 2019
GPGPU-Sim PTX: 5100000 instructions simulated : ctaid=(9,0,0) tid=(191,0,0)
GPGPU-Sim uArch: cycles simulated: 231500  inst.: 5031360 (ipc=21.7) sim_rate=25670 (inst/sec) elapsed = 0:0:03:16 / Tue Apr 16 16:58:42 2019
GPGPU-Sim uArch: cycles simulated: 233000  inst.: 5059104 (ipc=21.7) sim_rate=25680 (inst/sec) elapsed = 0:0:03:17 / Tue Apr 16 16:58:43 2019
GPGPU-Sim uArch: cycles simulated: 234000  inst.: 5081664 (ipc=21.7) sim_rate=25664 (inst/sec) elapsed = 0:0:03:18 / Tue Apr 16 16:58:44 2019
GPGPU-Sim uArch: cycles simulated: 235500  inst.: 5110272 (ipc=21.7) sim_rate=25679 (inst/sec) elapsed = 0:0:03:19 / Tue Apr 16 16:58:45 2019
GPGPU-Sim PTX: 5200000 instructions simulated : ctaid=(6,0,0) tid=(159,0,0)
GPGPU-Sim uArch: cycles simulated: 236500  inst.: 5128992 (ipc=21.7) sim_rate=25644 (inst/sec) elapsed = 0:0:03:20 / Tue Apr 16 16:58:46 2019
GPGPU-Sim uArch: cycles simulated: 238000  inst.: 5154912 (ipc=21.7) sim_rate=25646 (inst/sec) elapsed = 0:0:03:21 / Tue Apr 16 16:58:47 2019
GPGPU-Sim uArch: cycles simulated: 239000  inst.: 5172864 (ipc=21.6) sim_rate=25608 (inst/sec) elapsed = 0:0:03:22 / Tue Apr 16 16:58:48 2019
GPGPU-Sim uArch: cycles simulated: 240000  inst.: 5195136 (ipc=21.6) sim_rate=25591 (inst/sec) elapsed = 0:0:03:23 / Tue Apr 16 16:58:49 2019
GPGPU-Sim uArch: cycles simulated: 241500  inst.: 5223904 (ipc=21.6) sim_rate=25607 (inst/sec) elapsed = 0:0:03:24 / Tue Apr 16 16:58:50 2019
GPGPU-Sim PTX: 5300000 instructions simulated : ctaid=(9,0,0) tid=(159,0,0)
GPGPU-Sim uArch: cycles simulated: 242500  inst.: 5239520 (ipc=21.6) sim_rate=25558 (inst/sec) elapsed = 0:0:03:25 / Tue Apr 16 16:58:51 2019
GPGPU-Sim uArch: cycles simulated: 244000  inst.: 5274528 (ipc=21.6) sim_rate=25604 (inst/sec) elapsed = 0:0:03:26 / Tue Apr 16 16:58:52 2019
GPGPU-Sim uArch: cycles simulated: 245000  inst.: 5285696 (ipc=21.6) sim_rate=25534 (inst/sec) elapsed = 0:0:03:27 / Tue Apr 16 16:58:53 2019
GPGPU-Sim uArch: cycles simulated: 246500  inst.: 5318336 (ipc=21.6) sim_rate=25568 (inst/sec) elapsed = 0:0:03:28 / Tue Apr 16 16:58:54 2019
GPGPU-Sim PTX: 5400000 instructions simulated : ctaid=(3,0,0) tid=(127,0,0)
GPGPU-Sim uArch: cycles simulated: 247500  inst.: 5335936 (ipc=21.6) sim_rate=25530 (inst/sec) elapsed = 0:0:03:29 / Tue Apr 16 16:58:55 2019
GPGPU-Sim uArch: cycles simulated: 248500  inst.: 5353312 (ipc=21.5) sim_rate=25491 (inst/sec) elapsed = 0:0:03:30 / Tue Apr 16 16:58:56 2019
GPGPU-Sim uArch: cycles simulated: 250000  inst.: 5382688 (ipc=21.5) sim_rate=25510 (inst/sec) elapsed = 0:0:03:31 / Tue Apr 16 16:58:57 2019
GPGPU-Sim uArch: cycles simulated: 251000  inst.: 5402016 (ipc=21.5) sim_rate=25481 (inst/sec) elapsed = 0:0:03:32 / Tue Apr 16 16:58:58 2019
GPGPU-Sim PTX: 5500000 instructions simulated : ctaid=(8,1,0) tid=(31,0,0)
GPGPU-Sim uArch: cycles simulated: 252500  inst.: 5434112 (ipc=21.5) sim_rate=25512 (inst/sec) elapsed = 0:0:03:33 / Tue Apr 16 16:58:59 2019
GPGPU-Sim uArch: cycles simulated: 253500  inst.: 5451104 (ipc=21.5) sim_rate=25472 (inst/sec) elapsed = 0:0:03:34 / Tue Apr 16 16:59:00 2019
GPGPU-Sim uArch: cycles simulated: 255000  inst.: 5477376 (ipc=21.5) sim_rate=25476 (inst/sec) elapsed = 0:0:03:35 / Tue Apr 16 16:59:01 2019
GPGPU-Sim uArch: cycles simulated: 256000  inst.: 5499872 (ipc=21.5) sim_rate=25462 (inst/sec) elapsed = 0:0:03:36 / Tue Apr 16 16:59:02 2019
GPGPU-Sim PTX: 5600000 instructions simulated : ctaid=(6,0,0) tid=(223,0,0)
GPGPU-Sim uArch: cycles simulated: 257500  inst.: 5528480 (ipc=21.5) sim_rate=25476 (inst/sec) elapsed = 0:0:03:37 / Tue Apr 16 16:59:03 2019
GPGPU-Sim uArch: cycles simulated: 258500  inst.: 5548320 (ipc=21.5) sim_rate=25451 (inst/sec) elapsed = 0:0:03:38 / Tue Apr 16 16:59:04 2019
GPGPU-Sim uArch: cycles simulated: 259500  inst.: 5568096 (ipc=21.5) sim_rate=25425 (inst/sec) elapsed = 0:0:03:39 / Tue Apr 16 16:59:05 2019
GPGPU-Sim uArch: cycles simulated: 261000  inst.: 5596064 (ipc=21.4) sim_rate=25436 (inst/sec) elapsed = 0:0:03:40 / Tue Apr 16 16:59:06 2019
GPGPU-Sim uArch: cycles simulated: 262000  inst.: 5620096 (ipc=21.5) sim_rate=25430 (inst/sec) elapsed = 0:0:03:41 / Tue Apr 16 16:59:07 2019
GPGPU-Sim PTX: 5700000 instructions simulated : ctaid=(0,1,0) tid=(159,0,0)
GPGPU-Sim uArch: cycles simulated: 263500  inst.: 5646528 (ipc=21.4) sim_rate=25434 (inst/sec) elapsed = 0:0:03:42 / Tue Apr 16 16:59:08 2019
GPGPU-Sim uArch: cycles simulated: 264500  inst.: 5662080 (ipc=21.4) sim_rate=25390 (inst/sec) elapsed = 0:0:03:43 / Tue Apr 16 16:59:09 2019
GPGPU-Sim uArch: cycles simulated: 266000  inst.: 5692576 (ipc=21.4) sim_rate=25413 (inst/sec) elapsed = 0:0:03:44 / Tue Apr 16 16:59:10 2019
GPGPU-Sim uArch: cycles simulated: 267000  inst.: 5706528 (ipc=21.4) sim_rate=25362 (inst/sec) elapsed = 0:0:03:45 / Tue Apr 16 16:59:11 2019
GPGPU-Sim PTX: 5800000 instructions simulated : ctaid=(1,0,0) tid=(63,0,0)
GPGPU-Sim uArch: cycles simulated: 268000  inst.: 5729440 (ipc=21.4) sim_rate=25351 (inst/sec) elapsed = 0:0:03:46 / Tue Apr 16 16:59:12 2019
GPGPU-Sim uArch: cycles simulated: 269500  inst.: 5752800 (ipc=21.3) sim_rate=25342 (inst/sec) elapsed = 0:0:03:47 / Tue Apr 16 16:59:13 2019
GPGPU-Sim uArch: cycles simulated: 270500  inst.: 5769408 (ipc=21.3) sim_rate=25304 (inst/sec) elapsed = 0:0:03:48 / Tue Apr 16 16:59:14 2019
GPGPU-Sim uArch: cycles simulated: 272000  inst.: 5799488 (ipc=21.3) sim_rate=25325 (inst/sec) elapsed = 0:0:03:49 / Tue Apr 16 16:59:15 2019
GPGPU-Sim uArch: cycles simulated: 273000  inst.: 5812416 (ipc=21.3) sim_rate=25271 (inst/sec) elapsed = 0:0:03:50 / Tue Apr 16 16:59:16 2019
GPGPU-Sim PTX: 5900000 instructions simulated : ctaid=(0,1,0) tid=(63,0,0)
GPGPU-Sim uArch: cycles simulated: 274500  inst.: 5839424 (ipc=21.3) sim_rate=25278 (inst/sec) elapsed = 0:0:03:51 / Tue Apr 16 16:59:17 2019
GPGPU-Sim uArch: cycles simulated: 275500  inst.: 5856448 (ipc=21.3) sim_rate=25243 (inst/sec) elapsed = 0:0:03:52 / Tue Apr 16 16:59:18 2019
GPGPU-Sim uArch: cycles simulated: 277000  inst.: 5880960 (ipc=21.2) sim_rate=25240 (inst/sec) elapsed = 0:0:03:53 / Tue Apr 16 16:59:19 2019
GPGPU-Sim uArch: cycles simulated: 278000  inst.: 5899808 (ipc=21.2) sim_rate=25212 (inst/sec) elapsed = 0:0:03:54 / Tue Apr 16 16:59:20 2019
GPGPU-Sim uArch: cycles simulated: 279000  inst.: 5915936 (ipc=21.2) sim_rate=25174 (inst/sec) elapsed = 0:0:03:55 / Tue Apr 16 16:59:21 2019
GPGPU-Sim PTX: 6000000 instructions simulated : ctaid=(8,0,0) tid=(223,0,0)
GPGPU-Sim uArch: cycles simulated: 280500  inst.: 5943200 (ipc=21.2) sim_rate=25183 (inst/sec) elapsed = 0:0:03:56 / Tue Apr 16 16:59:22 2019
GPGPU-Sim uArch: cycles simulated: 281500  inst.: 5965728 (ipc=21.2) sim_rate=25171 (inst/sec) elapsed = 0:0:03:57 / Tue Apr 16 16:59:23 2019
GPGPU-Sim uArch: cycles simulated: 283000  inst.: 5987904 (ipc=21.2) sim_rate=25159 (inst/sec) elapsed = 0:0:03:58 / Tue Apr 16 16:59:24 2019
GPGPU-Sim uArch: cycles simulated: 284000  inst.: 6006432 (ipc=21.1) sim_rate=25131 (inst/sec) elapsed = 0:0:03:59 / Tue Apr 16 16:59:25 2019
GPGPU-Sim PTX: 6100000 instructions simulated : ctaid=(8,0,0) tid=(223,0,0)
GPGPU-Sim uArch: cycles simulated: 285500  inst.: 6032992 (ipc=21.1) sim_rate=25137 (inst/sec) elapsed = 0:0:04:00 / Tue Apr 16 16:59:26 2019
GPGPU-Sim uArch: cycles simulated: 286500  inst.: 6051328 (ipc=21.1) sim_rate=25109 (inst/sec) elapsed = 0:0:04:01 / Tue Apr 16 16:59:27 2019
GPGPU-Sim uArch: cycles simulated: 288000  inst.: 6079936 (ipc=21.1) sim_rate=25123 (inst/sec) elapsed = 0:0:04:02 / Tue Apr 16 16:59:28 2019
GPGPU-Sim uArch: cycles simulated: 289000  inst.: 6095328 (ipc=21.1) sim_rate=25083 (inst/sec) elapsed = 0:0:04:03 / Tue Apr 16 16:59:29 2019
GPGPU-Sim uArch: cycles simulated: 290500  inst.: 6121312 (ipc=21.1) sim_rate=25087 (inst/sec) elapsed = 0:0:04:04 / Tue Apr 16 16:59:30 2019
GPGPU-Sim PTX: 6200000 instructions simulated : ctaid=(0,0,0) tid=(31,0,0)
GPGPU-Sim uArch: cycles simulated: 291500  inst.: 6136800 (ipc=21.1) sim_rate=25048 (inst/sec) elapsed = 0:0:04:05 / Tue Apr 16 16:59:31 2019
GPGPU-Sim uArch: cycles simulated: 293000  inst.: 6163936 (ipc=21.0) sim_rate=25056 (inst/sec) elapsed = 0:0:04:06 / Tue Apr 16 16:59:32 2019
GPGPU-Sim uArch: cycles simulated: 294000  inst.: 6180768 (ipc=21.0) sim_rate=25023 (inst/sec) elapsed = 0:0:04:07 / Tue Apr 16 16:59:33 2019
GPGPU-Sim uArch: cycles simulated: 295500  inst.: 6205504 (ipc=21.0) sim_rate=25022 (inst/sec) elapsed = 0:0:04:08 / Tue Apr 16 16:59:34 2019
GPGPU-Sim uArch: cycles simulated: 296500  inst.: 6219520 (ipc=21.0) sim_rate=24977 (inst/sec) elapsed = 0:0:04:09 / Tue Apr 16 16:59:35 2019
GPGPU-Sim PTX: 6300000 instructions simulated : ctaid=(4,0,0) tid=(31,0,0)
GPGPU-Sim uArch: cycles simulated: 297500  inst.: 6238080 (ipc=21.0) sim_rate=24952 (inst/sec) elapsed = 0:0:04:10 / Tue Apr 16 16:59:36 2019
GPGPU-Sim uArch: cycles simulated: 299000  inst.: 6264096 (ipc=21.0) sim_rate=24956 (inst/sec) elapsed = 0:0:04:11 / Tue Apr 16 16:59:37 2019
GPGPU-Sim uArch: cycles simulated: 300000  inst.: 6278720 (ipc=20.9) sim_rate=24915 (inst/sec) elapsed = 0:0:04:12 / Tue Apr 16 16:59:38 2019
GPGPU-Sim uArch: cycles simulated: 301000  inst.: 6296864 (ipc=20.9) sim_rate=24888 (inst/sec) elapsed = 0:0:04:13 / Tue Apr 16 16:59:39 2019
GPGPU-Sim PTX: 6400000 instructions simulated : ctaid=(5,0,0) tid=(223,0,0)
GPGPU-Sim uArch: cycles simulated: 302500  inst.: 6322464 (ipc=20.9) sim_rate=24891 (inst/sec) elapsed = 0:0:04:14 / Tue Apr 16 16:59:40 2019
GPGPU-Sim uArch: cycles simulated: 303500  inst.: 6343360 (ipc=20.9) sim_rate=24875 (inst/sec) elapsed = 0:0:04:15 / Tue Apr 16 16:59:41 2019
GPGPU-Sim uArch: cycles simulated: 305000  inst.: 6364832 (ipc=20.9) sim_rate=24862 (inst/sec) elapsed = 0:0:04:16 / Tue Apr 16 16:59:42 2019
GPGPU-Sim uArch: cycles simulated: 306000  inst.: 6383712 (ipc=20.9) sim_rate=24839 (inst/sec) elapsed = 0:0:04:17 / Tue Apr 16 16:59:43 2019
GPGPU-Sim uArch: cycles simulated: 307500  inst.: 6406048 (ipc=20.8) sim_rate=24829 (inst/sec) elapsed = 0:0:04:18 / Tue Apr 16 16:59:44 2019
GPGPU-Sim uArch: cycles simulated: 308500  inst.: 6422176 (ipc=20.8) sim_rate=24796 (inst/sec) elapsed = 0:0:04:19 / Tue Apr 16 16:59:45 2019
GPGPU-Sim PTX: 6500000 instructions simulated : ctaid=(4,2,0) tid=(159,0,0)
GPGPU-Sim uArch: cycles simulated: 310000  inst.: 6448960 (ipc=20.8) sim_rate=24803 (inst/sec) elapsed = 0:0:04:20 / Tue Apr 16 16:59:46 2019
GPGPU-Sim uArch: cycles simulated: 311000  inst.: 6470016 (ipc=20.8) sim_rate=24789 (inst/sec) elapsed = 0:0:04:21 / Tue Apr 16 16:59:47 2019
GPGPU-Sim uArch: cycles simulated: 312500  inst.: 6490336 (ipc=20.8) sim_rate=24772 (inst/sec) elapsed = 0:0:04:22 / Tue Apr 16 16:59:48 2019
GPGPU-Sim uArch: cycles simulated: 313500  inst.: 6509472 (ipc=20.8) sim_rate=24750 (inst/sec) elapsed = 0:0:04:23 / Tue Apr 16 16:59:49 2019
GPGPU-Sim PTX: 6600000 instructions simulated : ctaid=(5,0,0) tid=(191,0,0)
GPGPU-Sim uArch: cycles simulated: 315000  inst.: 6531488 (ipc=20.7) sim_rate=24740 (inst/sec) elapsed = 0:0:04:24 / Tue Apr 16 16:59:50 2019
GPGPU-Sim uArch: cycles simulated: 316000  inst.: 6552864 (ipc=20.7) sim_rate=24727 (inst/sec) elapsed = 0:0:04:25 / Tue Apr 16 16:59:51 2019
GPGPU-Sim uArch: cycles simulated: 317000  inst.: 6570560 (ipc=20.7) sim_rate=24701 (inst/sec) elapsed = 0:0:04:26 / Tue Apr 16 16:59:52 2019
GPGPU-Sim uArch: cycles simulated: 318500  inst.: 6597728 (ipc=20.7) sim_rate=24710 (inst/sec) elapsed = 0:0:04:27 / Tue Apr 16 16:59:53 2019
GPGPU-Sim uArch: cycles simulated: 319500  inst.: 6612672 (ipc=20.7) sim_rate=24674 (inst/sec) elapsed = 0:0:04:28 / Tue Apr 16 16:59:54 2019
GPGPU-Sim PTX: 6700000 instructions simulated : ctaid=(2,1,0) tid=(223,0,0)
GPGPU-Sim uArch: cycles simulated: 321000  inst.: 6640864 (ipc=20.7) sim_rate=24687 (inst/sec) elapsed = 0:0:04:29 / Tue Apr 16 16:59:55 2019
GPGPU-Sim uArch: cycles simulated: 322000  inst.: 6659840 (ipc=20.7) sim_rate=24666 (inst/sec) elapsed = 0:0:04:30 / Tue Apr 16 16:59:56 2019
GPGPU-Sim uArch: cycles simulated: 323500  inst.: 6682080 (ipc=20.7) sim_rate=24657 (inst/sec) elapsed = 0:0:04:31 / Tue Apr 16 16:59:57 2019
GPGPU-Sim uArch: cycles simulated: 324500  inst.: 6699776 (ipc=20.6) sim_rate=24631 (inst/sec) elapsed = 0:0:04:32 / Tue Apr 16 16:59:58 2019
GPGPU-Sim uArch: cycles simulated: 325500  inst.: 6718368 (ipc=20.6) sim_rate=24609 (inst/sec) elapsed = 0:0:04:33 / Tue Apr 16 16:59:59 2019
GPGPU-Sim PTX: 6800000 instructions simulated : ctaid=(3,0,0) tid=(223,0,0)
GPGPU-Sim uArch: cycles simulated: 327000  inst.: 6743744 (ipc=20.6) sim_rate=24612 (inst/sec) elapsed = 0:0:04:34 / Tue Apr 16 17:00:00 2019
GPGPU-Sim uArch: cycles simulated: 328000  inst.: 6761568 (ipc=20.6) sim_rate=24587 (inst/sec) elapsed = 0:0:04:35 / Tue Apr 16 17:00:01 2019
GPGPU-Sim uArch: cycles simulated: 329500  inst.: 6790176 (ipc=20.6) sim_rate=24602 (inst/sec) elapsed = 0:0:04:36 / Tue Apr 16 17:00:02 2019
GPGPU-Sim uArch: cycles simulated: 330500  inst.: 6806528 (ipc=20.6) sim_rate=24572 (inst/sec) elapsed = 0:0:04:37 / Tue Apr 16 17:00:03 2019
GPGPU-Sim PTX: 6900000 instructions simulated : ctaid=(0,0,0) tid=(159,0,0)
GPGPU-Sim uArch: cycles simulated: 332000  inst.: 6833504 (ipc=20.6) sim_rate=24580 (inst/sec) elapsed = 0:0:04:38 / Tue Apr 16 17:00:04 2019
GPGPU-Sim uArch: cycles simulated: 333000  inst.: 6852352 (ipc=20.6) sim_rate=24560 (inst/sec) elapsed = 0:0:04:39 / Tue Apr 16 17:00:05 2019
GPGPU-Sim uArch: cycles simulated: 334000  inst.: 6870080 (ipc=20.6) sim_rate=24536 (inst/sec) elapsed = 0:0:04:40 / Tue Apr 16 17:00:06 2019
GPGPU-Sim uArch: cycles simulated: 335500  inst.: 6894208 (ipc=20.5) sim_rate=24534 (inst/sec) elapsed = 0:0:04:41 / Tue Apr 16 17:00:07 2019
GPGPU-Sim uArch: cycles simulated: 336500  inst.: 6916416 (ipc=20.6) sim_rate=24526 (inst/sec) elapsed = 0:0:04:42 / Tue Apr 16 17:00:08 2019
GPGPU-Sim PTX: 7000000 instructions simulated : ctaid=(10,1,0) tid=(31,0,0)
GPGPU-Sim uArch: cycles simulated: 338000  inst.: 6942240 (ipc=20.5) sim_rate=24530 (inst/sec) elapsed = 0:0:04:43 / Tue Apr 16 17:00:09 2019
GPGPU-Sim uArch: cycles simulated: 339000  inst.: 6962176 (ipc=20.5) sim_rate=24514 (inst/sec) elapsed = 0:0:04:44 / Tue Apr 16 17:00:10 2019
GPGPU-Sim uArch: cycles simulated: 340500  inst.: 6986976 (ipc=20.5) sim_rate=24515 (inst/sec) elapsed = 0:0:04:45 / Tue Apr 16 17:00:11 2019
GPGPU-Sim uArch: cycles simulated: 341500  inst.: 7004544 (ipc=20.5) sim_rate=24491 (inst/sec) elapsed = 0:0:04:46 / Tue Apr 16 17:00:12 2019
GPGPU-Sim PTX: 7100000 instructions simulated : ctaid=(7,0,0) tid=(31,0,0)
GPGPU-Sim uArch: cycles simulated: 343000  inst.: 7031264 (ipc=20.5) sim_rate=24499 (inst/sec) elapsed = 0:0:04:47 / Tue Apr 16 17:00:13 2019
GPGPU-Sim uArch: cycles simulated: 344000  inst.: 7048704 (ipc=20.5) sim_rate=24474 (inst/sec) elapsed = 0:0:04:48 / Tue Apr 16 17:00:14 2019
GPGPU-Sim uArch: cycles simulated: 345000  inst.: 7065920 (ipc=20.5) sim_rate=24449 (inst/sec) elapsed = 0:0:04:49 / Tue Apr 16 17:00:15 2019
GPGPU-Sim uArch: cycles simulated: 346500  inst.: 7089152 (ipc=20.5) sim_rate=24445 (inst/sec) elapsed = 0:0:04:50 / Tue Apr 16 17:00:16 2019
GPGPU-Sim uArch: cycles simulated: 347500  inst.: 7106656 (ipc=20.5) sim_rate=24421 (inst/sec) elapsed = 0:0:04:51 / Tue Apr 16 17:00:17 2019
GPGPU-Sim PTX: 7200000 instructions simulated : ctaid=(1,1,0) tid=(127,0,0)
GPGPU-Sim uArch: cycles simulated: 349000  inst.: 7132288 (ipc=20.4) sim_rate=24425 (inst/sec) elapsed = 0:0:04:52 / Tue Apr 16 17:00:18 2019
GPGPU-Sim uArch: cycles simulated: 350000  inst.: 7154112 (ipc=20.4) sim_rate=24416 (inst/sec) elapsed = 0:0:04:53 / Tue Apr 16 17:00:19 2019
GPGPU-Sim uArch: cycles simulated: 351500  inst.: 7178752 (ipc=20.4) sim_rate=24417 (inst/sec) elapsed = 0:0:04:54 / Tue Apr 16 17:00:20 2019
GPGPU-Sim uArch: cycles simulated: 352500  inst.: 7196256 (ipc=20.4) sim_rate=24394 (inst/sec) elapsed = 0:0:04:55 / Tue Apr 16 17:00:21 2019
GPGPU-Sim uArch: cycles simulated: 353500  inst.: 7218784 (ipc=20.4) sim_rate=24387 (inst/sec) elapsed = 0:0:04:56 / Tue Apr 16 17:00:22 2019
GPGPU-Sim PTX: 7300000 instructions simulated : ctaid=(5,3,0) tid=(159,0,0)
GPGPU-Sim uArch: cycles simulated: 355000  inst.: 7242464 (ipc=20.4) sim_rate=24385 (inst/sec) elapsed = 0:0:04:57 / Tue Apr 16 17:00:23 2019
GPGPU-Sim uArch: cycles simulated: 356000  inst.: 7257952 (ipc=20.4) sim_rate=24355 (inst/sec) elapsed = 0:0:04:58 / Tue Apr 16 17:00:24 2019
GPGPU-Sim uArch: cycles simulated: 357500  inst.: 7288000 (ipc=20.4) sim_rate=24374 (inst/sec) elapsed = 0:0:04:59 / Tue Apr 16 17:00:25 2019
GPGPU-Sim uArch: cycles simulated: 358500  inst.: 7307264 (ipc=20.4) sim_rate=24357 (inst/sec) elapsed = 0:0:05:00 / Tue Apr 16 17:00:26 2019
GPGPU-Sim PTX: 7400000 instructions simulated : ctaid=(1,1,0) tid=(95,0,0)
GPGPU-Sim uArch: cycles simulated: 360000  inst.: 7329152 (ipc=20.4) sim_rate=24349 (inst/sec) elapsed = 0:0:05:01 / Tue Apr 16 17:00:27 2019
GPGPU-Sim uArch: cycles simulated: 361000  inst.: 7351520 (ipc=20.4) sim_rate=24342 (inst/sec) elapsed = 0:0:05:02 / Tue Apr 16 17:00:28 2019
GPGPU-Sim uArch: cycles simulated: 362500  inst.: 7378016 (ipc=20.4) sim_rate=24349 (inst/sec) elapsed = 0:0:05:03 / Tue Apr 16 17:00:29 2019
GPGPU-Sim uArch: cycles simulated: 363500  inst.: 7388576 (ipc=20.3) sim_rate=24304 (inst/sec) elapsed = 0:0:05:04 / Tue Apr 16 17:00:30 2019
GPGPU-Sim uArch: cycles simulated: 365000  inst.: 7417504 (ipc=20.3) sim_rate=24319 (inst/sec) elapsed = 0:0:05:05 / Tue Apr 16 17:00:31 2019
GPGPU-Sim PTX: 7500000 instructions simulated : ctaid=(0,2,0) tid=(31,0,0)
GPGPU-Sim uArch: cycles simulated: 366000  inst.: 7438560 (ipc=20.3) sim_rate=24309 (inst/sec) elapsed = 0:0:05:06 / Tue Apr 16 17:00:32 2019
GPGPU-Sim uArch: cycles simulated: 367500  inst.: 7464256 (ipc=20.3) sim_rate=24313 (inst/sec) elapsed = 0:0:05:07 / Tue Apr 16 17:00:33 2019
GPGPU-Sim uArch: cycles simulated: 368500  inst.: 7479872 (ipc=20.3) sim_rate=24285 (inst/sec) elapsed = 0:0:05:08 / Tue Apr 16 17:00:34 2019
GPGPU-Sim uArch: cycles simulated: 370000  inst.: 7513984 (ipc=20.3) sim_rate=24317 (inst/sec) elapsed = 0:0:05:09 / Tue Apr 16 17:00:35 2019
GPGPU-Sim PTX: 7600000 instructions simulated : ctaid=(5,0,0) tid=(223,0,0)
GPGPU-Sim uArch: cycles simulated: 371000  inst.: 7527136 (ipc=20.3) sim_rate=24281 (inst/sec) elapsed = 0:0:05:10 / Tue Apr 16 17:00:36 2019
GPGPU-Sim uArch: cycles simulated: 372500  inst.: 7562144 (ipc=20.3) sim_rate=24315 (inst/sec) elapsed = 0:0:05:11 / Tue Apr 16 17:00:37 2019
GPGPU-Sim uArch: cycles simulated: 373500  inst.: 7580288 (ipc=20.3) sim_rate=24295 (inst/sec) elapsed = 0:0:05:12 / Tue Apr 16 17:00:38 2019
GPGPU-Sim uArch: cycles simulated: 374500  inst.: 7593344 (ipc=20.3) sim_rate=24259 (inst/sec) elapsed = 0:0:05:13 / Tue Apr 16 17:00:39 2019
GPGPU-Sim PTX: 7700000 instructions simulated : ctaid=(3,1,0) tid=(159,0,0)
GPGPU-Sim uArch: cycles simulated: 376000  inst.: 7621216 (ipc=20.3) sim_rate=24271 (inst/sec) elapsed = 0:0:05:14 / Tue Apr 16 17:00:40 2019
GPGPU-Sim uArch: cycles simulated: 377000  inst.: 7639648 (ipc=20.3) sim_rate=24252 (inst/sec) elapsed = 0:0:05:15 / Tue Apr 16 17:00:41 2019
GPGPU-Sim uArch: cycles simulated: 378500  inst.: 7664512 (ipc=20.2) sim_rate=24254 (inst/sec) elapsed = 0:0:05:16 / Tue Apr 16 17:00:42 2019
GPGPU-Sim uArch: cycles simulated: 379500  inst.: 7683712 (ipc=20.2) sim_rate=24238 (inst/sec) elapsed = 0:0:05:17 / Tue Apr 16 17:00:43 2019
[...]
dram[5]:  1.220627  1.214099  1.211331  1.215695  1.215462  1.211306  1.212595  1.211057  1.217575  1.212850  1.222686  1.217273  1.213181  1.213429  1.211955  1.216979 
average row locality = 2596776/2146038 = 1.210033
number of total memory accesses made:
dram[0]:         0         0         0         0         0         0         0         0         0         0         0         0         0         0         0         0 
dram[1]:         0         0         0         0         0         0         0         0         0         0         0         0         0         0         0         0 
dram[2]:         0         0         0         0         0         0         0         0         0         0         0         0         0         0         0         0 
dram[3]:         0         0         0         0         0         0         0         0         0         0         0         0         0         0         0         0 
dram[4]:         0         0         0         0         0         0         0         0         0         0         0         0         0         0         0         0 
dram[5]:         0         0         0         0         0         0         0         0         0         0         0         0         0         0         0         0 
total accesses: 0
min_bank_accesses = 0!
min_chip_accesses = 0!
number of total read accesses:
dram[0]:     26163     26139     27062     26808     26279     26284     27840     27743     26577     26675     27476     27103     25601     25818     27042     26600 
dram[1]:     26307     26279     26998     26914     26291     26559     27617     27950     26640     26791     27414     27274     25721     25877     26828     27007 
dram[2]:     26943     27062     27539     27871     27159     27446     28072     28768     27547     27461     27953     28284     26552     26682     27334     27891 
dram[3]:     26525     26531     26914     27136     26790     27019     27554     28007     27027     26997     27358     27594     26107     26119     26834     27366 
dram[4]:     26511     26840     27228     27141     27086     27447     27878     28211     27182     27155     27707     27898     26033     26433     27346     27367 
dram[5]:     26542     26475     27347     26552     26948     26805     28228     27623     27046     26730     27854     26780     26266     26089     27388     26729 
total reads: 2594984
bank skew: 28768/25601 = 1.12
chip skew: 440564/427210 = 1.03
number of total write accesses:
dram[0]:        64        64         0         0         0         0         0         0         0         0         0         0        20        20        64        64 
dram[1]:        64        64         0         0         0         0         0         0         0         0         0         0        20        20        64        64 
dram[2]:        64        64         0         0         0         0         0         0         0         0         0         0        20        24        64        64 
dram[3]:        64        64         0         0         0         0         0         0         0         0         0         0        20        24        64        64 
dram[4]:        64        64         0         0         0         0         0         0         0         0         0         0        20        24        64        64 
dram[5]:        64        64         0         0         0         0         0         0         0         0         0         0        20        24        64        64 
total reads: 1792
min_bank_accesses = 0!
chip skew: 300/296 = 1.01
average mf latency per bank:
dram[0]:       3733      3795      4486      4702      3761      3833      3633      3665      3721      3829      3592      3679      3828      3868      3628      3777
dram[1]:       3889      3864      4831      4762      3934      3885      3839      3739      3906      3926      3773      3733      4023      3961      3834      3802
dram[2]:       3685      3770      4563      4665      3719      3760      3632      3698      3714      3772      3582      3664      3785      3813      3640      3682
dram[3]:       3709      3790      4605      4693      3733      3770      3654      3708      3753      3781      3614      3688      3800      3848      3682      3673
dram[4]:       3796      3638      4696      4311      3716      3594      3722      3546      3742      3685      3665      3518      3845      3730      3672      3587
dram[5]:       3800      3256      4690      3267      3777      3256      3692      3187      3802      3327      3646      3220      3847      3332      3687      3266
maximum mf latency per bank:
dram[0]:        961       952      1156       969       960       974       973       953      1026       966      1042      1013      1029       958       990       917
dram[1]:        973       966       979       996      1004       936       927       921      1036       960       999       998      1016      1007       959       946
dram[2]:        984      1064      1023       985       958      1004      1007      1019       960      1016       941      1030       989      1007      1043      1007
dram[3]:       1071      1004      1037      1001      1014      1062      1038      1001      1095      1059      1078       993      1083       992      1049      1016
dram[4]:        990       947       989       990      1011       945      1016       912      1020       955       998      1001      1020      1045      1049       929
dram[5]:       1011       919       964       830       947       829       999       822       919       821       960       857       964       871       970       857

Number of Memory Banks Accessed per Memory Operation per Warp (from 0):
0	0	0	0	0	0	0	0	0	0	0	0	0	0	0	0	0	0	0	0	0	0	0	0	0	0	0	0	0	0	0	0	0	0	0	0	0	0	0	0	0	0	0	0	0	0	0	0	0	0	0	0	0	0	0	0	0	0	0	0	0	0	0	0	0	0	0	0	0	0	0	0	0	0	0	0	0	0	0	0	0	0	0	0	0	0	0	0	0	0	0	0	0	0	0	0	
Average # of Memory Banks Accessed per Memory Operation per Warp=-nan

position of mrq chosen
0	0	0	0	0	0	0	0	0	0	0	0	0	0	0	0	

average position of mrq chosen = -nan
Memory Partition 0: 
Cache L2_bank_000:
MSHR contents

Cache L2_bank_001:
MSHR contents

In Dram Latency Queue (total = 0): 
DRAM[0]: 16 bks, busW=4 BL=8 CL=12, tRRD=2 tCCD=6, tRCD=12 tRAS=28 tRP=12 tRC=40
n_cmd=34577016 n_nop=33015458 n_act=353281 n_pre=353265 n_req=427506 n_rd=854420 n_write=592 bw_util=0.04946
n_activity=13574116 dram_eff=0.126
bk0: 52326a 33904643i bk1: 52278a 33908464i bk2: 54124a 33885849i bk3: 53616a 33891511i bk4: 52558a 33900468i bk5: 52568a 33904183i bk6: 55680a 33862289i bk7: 55486a 33863215i bk8: 53154a 33893927i bk9: 53350a 33891499i bk10: 54952a 33871615i bk11: 54206a 33882224i bk12: 51202a 33915110i bk13: 51636a 33914749i bk14: 54084a 33881389i bk15: 53200a 33890165i 
dram_util_bins: 0 0 0 0 0 0 0 0 0 0
dram_eff_bins: 0 0 0 0 0 0 0 0 0 0
mrqq: max=16 avg=0.0107612
Memory Partition 1: 
Cache L2_bank_002:
MSHR contents

Cache L2_bank_003:
MSHR contents
MSHR: tag=0x81e4af80, atomic=0 1 entries : 0x7fa4452dadd0 :  mf: uid=381069320, sid09:w15, part=1, addr=0x81e4af80, load , size=128, unknown  status = IN_PARTITION_DRAM (26194708), 

In Dram Latency Queue (total = 0): 
DRAM[1]: 16 bks, busW=4 BL=8 CL=12, tRRD=2 tCCD=6, tRCD=12 tRAS=28 tRP=12 tRC=40
n_cmd=34577016 n_nop=33010256 n_act=354625 n_pre=354609 n_req=428763 n_rd=856934 n_write=592 bw_util=0.0496
n_activity=13642616 dram_eff=0.1257
bk0: 52614a 33901590i bk1: 52558a 33902494i bk2: 53996a 33887012i bk3: 53828a 33888866i bk4: 52582a 33901414i bk5: 53118a 33897773i bk6: 55234a 33867780i bk7: 55900a 33859533i bk8: 53280a 33890803i bk9: 53582a 33888454i bk10: 54828a 33874750i bk11: 54548a 33879387i bk12: 51442a 33913948i bk13: 51754a 33912344i bk14: 53656a 33886071i bk15: 54014a 33882620i 
dram_util_bins: 0 0 0 0 0 0 0 0 0 0
dram_eff_bins: 0 0 0 0 0 0 0 0 0 0
mrqq: max=16 avg=0.0096019
Memory Partition 2: 
Cache L2_bank_004:
MSHR contents

Cache L2_bank_005:
MSHR contents

In Dram Latency Queue (total = 0): 
DRAM[2]: 16 bks, busW=4 BL=8 CL=12, tRRD=2 tCCD=6, tRCD=12 tRAS=28 tRP=12 tRC=40
n_cmd=34577016 n_nop=32966568 n_act=364368 n_pre=364352 n_req=440864 n_rd=881128 n_write=600 bw_util=0.051
n_activity=13747776 dram_eff=0.1283
bk0: 53886a 33880803i bk1: 54124a 33879716i bk2: 55078a 33870091i bk3: 55742a 33862243i bk4: 54318a 33877612i bk5: 54892a 33871757i bk6: 56144a 33850021i bk7: 57536a 33836436i bk8: 55094a 33867372i bk9: 54922a 33867410i bk10: 55906a 33857685i bk11: 56568a 33849698i bk12: 53104a 33887074i bk13: 53364a 33887551i bk14: 54668a 33868337i bk15: 55782a 33851084i 
dram_util_bins: 0 0 0 0 0 0 0 0 0 0
dram_eff_bins: 0 0 0 0 0 0 0 0 0 0
mrqq: max=16 avg=0.0125903
Memory Partition 3: 
Cache L2_bank_006:
MSHR contents

Cache L2_bank_007:
MSHR contents

In Dram Latency Queue (total = 0): 
DRAM[3]: 16 bks, busW=4 BL=8 CL=12, tRRD=2 tCCD=6, tRCD=12 tRAS=28 tRP=12 tRC=40
n_cmd=34577016 n_nop=32997996 n_act=357340 n_pre=357324 n_req=432178 n_rd=863756 n_write=600 bw_util=0.05
n_activity=13617319 dram_eff=0.1269
bk0: 53050a 33893457i bk1: 53062a 33896304i bk2: 53828a 33887115i bk3: 54272a 33883543i bk4: 53580a 33887651i bk5: 54038a 33886867i bk6: 55108a 33867077i bk7: 56014a 33857890i bk8: 54054a 33881211i bk9: 53994a 33885397i bk10: 54716a 33877384i bk11: 55188a 33869549i bk12: 52214a 33901677i bk13: 52238a 33902237i bk14: 53668a 33880977i bk15: 54732a 33872493i 
dram_util_bins: 0 0 0 0 0 0 0 0 0 0
dram_eff_bins: 0 0 0 0 0 0 0 0 0 0
mrqq: max=16 avg=0.0103913
Memory Partition 4: 
Cache L2_bank_008:
MSHR contents

Cache L2_bank_009:
MSHR contents

In Dram Latency Queue (total = 0): 
DRAM[4]: 16 bks, busW=4 BL=8 CL=12, tRRD=2 tCCD=6, tRCD=12 tRAS=28 tRP=12 tRC=40
n_cmd=34577016 n_nop=32983352 n_act=361077 n_pre=361061 n_req=435763 n_rd=870926 n_write=600 bw_util=0.05041
n_activity=13646847 dram_eff=0.1277
bk0: 53022a 33895190i bk1: 53680a 33886145i bk2: 54456a 33874477i bk3: 54282a 33878490i bk4: 54172a 33878441i bk5: 54894a 33868391i bk6: 55756a 33855972i bk7: 56422a 33847461i bk8: 54364a 33873133i bk9: 54310a 33877467i bk10: 55414a 33862117i bk11: 55796a 33860120i bk12: 52066a 33900692i bk13: 52866a 33892865i bk14: 54692a 33867887i bk15: 54734a 33868914i 
dram_util_bins: 0 0 0 0 0 0 0 0 0 0
dram_eff_bins: 0 0 0 0 0 0 0 0 0 0
mrqq: max=16 avg=0.0117114
Memory Partition 5: 
Cache L2_bank_010:
MSHR contents

Cache L2_bank_011:
MSHR contents

In Dram Latency Queue (total = 0): 
DRAM[5]: 16 bks, busW=4 BL=8 CL=12, tRRD=2 tCCD=6, tRCD=12 tRAS=28 tRP=12 tRC=40
n_cmd=34577016 n_nop=33002932 n_act=355348 n_pre=355332 n_req=431702 n_rd=862804 n_write=600 bw_util=0.04994
n_activity=13626790 dram_eff=0.1267
bk0: 53084a 33900107i bk1: 52950a 33902122i bk2: 54694a 33877154i bk3: 53104a 33900496i bk4: 53896a 33888995i bk5: 53610a 33893256i bk6: 56456a 33853927i bk7: 55246a 33869163i bk8: 54092a 33885082i bk9: 53460a 33894577i bk10: 55708a 33867731i bk11: 53560a 33893931i bk12: 52532a 33903383i bk13: 52178a 33911717i bk14: 54776a 33873347i bk15: 53458a 33894686i 
dram_util_bins: 0 0 0 0 0 0 0 0 0 0
dram_eff_bins: 0 0 0 0 0 0 0 0 0 0
mrqq: max=16 avg=0.00916672

========= L2 cache stats =========
L2_cache_bank[0]: Access = 2655654, Miss = 214040, Miss_rate = 0.081, Pending_hits = 12, Reservation_fails = 1281
L2_cache_bank[1]: Access = 2663315, Miss = 213170, Miss_rate = 0.080, Pending_hits = 7, Reservation_fails = 1179
L2_cache_bank[2]: Access = 2679188, Miss = 213816, Miss_rate = 0.080, Pending_hits = 13, Reservation_fails = 231
L2_cache_bank[3]: Access = 2671030, Miss = 214651, Miss_rate = 0.080, Pending_hits = 11, Reservation_fails = 28
L2_cache_bank[4]: Access = 2675780, Miss = 219099, Miss_rate = 0.082, Pending_hits = 15, Reservation_fails = 824
L2_cache_bank[5]: Access = 2673502, Miss = 221465, Miss_rate = 0.083, Pending_hits = 2, Reservation_fails = 757
L2_cache_bank[6]: Access = 2658679, Miss = 215109, Miss_rate = 0.081, Pending_hits = 1, Reservation_fails = 57
L2_cache_bank[7]: Access = 2658398, Miss = 216769, Miss_rate = 0.082, Pending_hits = 1, Reservation_fails = 78
L2_cache_bank[8]: Access = 2663309, Miss = 216971, Miss_rate = 0.081, Pending_hits = 3, Reservation_fails = 361
L2_cache_bank[9]: Access = 2650598, Miss = 218492, Miss_rate = 0.082, Pending_hits = 4, Reservation_fails = 233
L2_cache_bank[10]: Access = 2671581, Miss = 217619, Miss_rate = 0.081, Pending_hits = 10, Reservation_fails = 87
L2_cache_bank[11]: Access = 2582329, Miss = 213783, Miss_rate = 0.083, Pending_hits = 0, Reservation_fails = 46
L2_total_cache_accesses = 31903363
L2_total_cache_misses = 2594984
L2_total_cache_miss_rate = 0.0813
L2_total_cache_pending_hits = 79
L2_total_cache_reservation_fails = 5162
L2_total_cache_breakdown:
	L2_cache_stats_breakdown[GLOBAL_ACC_R][HIT] = 29308230
	L2_cache_stats_breakdown[GLOBAL_ACC_R][HIT_RESERVED] = 65
	L2_cache_stats_breakdown[GLOBAL_ACC_R][MISS] = 2593186
	L2_cache_stats_breakdown[GLOBAL_ACC_R][RESERVATION_FAIL] = 4740
	L2_cache_stats_breakdown[CONST_ACC_R][HIT] = 11
	L2_cache_stats_breakdown[CONST_ACC_R][HIT_RESERVED] = 3
	L2_cache_stats_breakdown[CONST_ACC_R][MISS] = 1
	L2_cache_stats_breakdown[CONST_ACC_R][RESERVATION_FAIL] = 95
	L2_cache_stats_breakdown[GLOBAL_ACC_W][MISS] = 1792
	L2_cache_stats_breakdown[INST_ACC_R][HIT] = 59
	L2_cache_stats_breakdown[INST_ACC_R][HIT_RESERVED] = 11
	L2_cache_stats_breakdown[INST_ACC_R][MISS] = 5
	L2_cache_stats_breakdown[INST_ACC_R][RESERVATION_FAIL] = 327
L2_cache_data_port_util = 0.373
L2_cache_fill_port_util = 0.033

icnt_total_pkts_mem_to_simt=159509617
icnt_total_pkts_simt_to_mem=31910531
LD_mem_lat_dist  0 0 0 0 0 0 0 0 0 0 0 0 0 0 0 0 0 0 0 0 0 0 0 0 0 0 0
ST_mem_lat_dist  0 0 0 0 0 0 0 0 0 0 0 0 0 0 0 0 0 0 0 0 0 0 0 0 0 0 0
----------------------------Interconnect-DETAILS--------------------------------
Class 0:
Packet latency average = 30.0179
	minimum = 6
	maximum = 488
Network latency average = 23.1955
	minimum = 6
	maximum = 481
Slowest packet = 33463391
Flit latency average = 17.1874
	minimum = 6
	maximum = 481
Slowest flit = 100389313
Fragmentation average = 7.05566e-05
	minimum = 0
	maximum = 308
Injected packet rate average = 0.0902921
	minimum = 0.0759976 (at node 0)
	maximum = 0.102443 (at node 17)
Accepted packet rate average = 0.0902921
	minimum = 0.0759976 (at node 0)
	maximum = 0.102443 (at node 17)
Injected flit rate average = 0.270876
	minimum = 0.0760147 (at node 0)
	maximum = 0.512191 (at node 17)
Accepted flit rate average= 0.270876
	minimum = 0.0985379 (at node 26)
	maximum = 0.436926 (at node 5)
Injected packet length average = 3
Accepted packet length average = 3
Total in-flight flits = 0 (0 measured)
====== Overall Traffic Statistics ======
====== Traffic class 0 ======
Packet latency average = 29.9191 (2 samples)
	minimum = 6 (2 samples)
	maximum = 491 (2 samples)
Network latency average = 23.1308 (2 samples)
	minimum = 6 (2 samples)
	maximum = 487.5 (2 samples)
Flit latency average = 17.1695 (2 samples)
	minimum = 6 (2 samples)
	maximum = 487.5 (2 samples)
Fragmentation average = 7.43462e-05 (2 samples)
	minimum = 0 (2 samples)
	maximum = 320 (2 samples)
Injected packet rate average = 0.0902173 (2 samples)
	minimum = 0.0757864 (2 samples)
	maximum = 0.10228 (2 samples)
Accepted packet rate average = 0.0902173 (2 samples)
	minimum = 0.0757864 (2 samples)
	maximum = 0.10228 (2 samples)
Injected flit rate average = 0.270652 (2 samples)
	minimum = 0.0758035 (2 samples)
	maximum = 0.511377 (2 samples)
Accepted flit rate average = 0.270652 (2 samples)
	minimum = 0.0986052 (2 samples)
	maximum = 0.436587 (2 samples)
Injected packet size average = 3 (2 samples)
Accepted packet size average = 3 (2 samples)
Hops average = 1 (2 samples)
----------------------------END-of-Interconnect-DETAILS-------------------------


gpgpu_simulation_time = 0 days, 4 hrs, 43 min, 47 sec (17027 sec)
gpgpu_simulation_rate = 28301 (inst/sec)
gpgpu_simulation_rate = 1538 (cycle/sec)
GPGPU-Sim: synchronize waiting for inactive GPU simulation
GPGPU-Sim API: Stream Manager State
GPGPU-Sim: detected inactive GPU simulation thread
iterated 2 times

================= Centroid Coordinates =================
0: 1.23 613.61 527.61 0.00 0.00 0.01 0.00 0.00 0.00 0.00 0.03 0.01 0.00 0.00 0.00 8.15 11.06 0.00 0.00 0.00 0.00 0.99 0.01 0.22 139.44 193.37 0.83 0.02 0.06 0.01 0.00 0.00 0.00 0.00 1.00 1.23 613.61 527.61 0.00 0.00 0.01 0.00 0.00 0.00 0.00 0.03 0.01 0.00 0.00 0.00 8.15 11.06 0.00 0.00 0.00 0.00 0.99 0.01 0.22 139.44 193.37 0.83 0.02 0.06 0.01 0.00 0.00 0.00 0.00 1.23 613.61 527.61 0.00 0.00 0.01 0.00 0.00 0.00 0.00 0.03 0.01 0.00 0.00 0.00 8.15 11.06 0.00 0.00 0.00 0.00 0.99 0.01 0.22 139.44 193.37 0.83 0.02 0.06 0.01 0.00 0.00 0.00 0.00 1.00 1.23 613.61 527.61 0.00 0.00 0.01 0.00 0.00 0.00 0.00 0.03 0.01 0.00 0.00 0.00 8.15 11.06 0.00 0.00 0.00 0.00 0.99 0.01 0.22 139.44 193.37 0.83 0.02 0.06 0.01 0.00 0.00 0.00 0.00

1: 1.45 15177.44 214.67 0.00 0.00 0.01 0.00 0.00 0.00 0.00 0.00 0.02 0.01 0.02 0.00 4.59 5.07 0.00 0.01 0.00 0.00 0.98 0.03 0.25 129.85 98.10 0.52 0.05 0.20 0.01 0.00 0.00 0.00 0.00 1.00 1.45 15177.44 214.67 0.00 0.00 0.01 0.00 0.00 0.00 0.00 0.00 0.02 0.01 0.02 0.00 4.59 5.07 0.00 0.01 0.00 0.00 0.98 0.03 0.25 129.85 98.10 0.52 0.05 0.20 0.01 0.00 0.00 0.00 0.00 1.45 15177.44 214.67 0.00 0.00 0.01 0.00 0.00 0.00 0.00 0.00 0.02 0.01 0.02 0.00 4.59 5.07 0.00 0.01 0.00 0.00 0.98 0.03 0.25 129.85 98.10 0.52 0.05 0.20 0.01 0.00 0.00 0.00 0.00 1.00 1.45 15177.44 214.67 0.00 0.00 0.01 0.00 0.00 0.00 0.00 0.00 0.02 0.01 0.02 0.00 4.59 5.07 0.00 0.01 0.00 0.00 0.98 0.03 0.25 129.85 98.10 0.52 0.05 0.20 0.01 0.00 0.00 0.00 0.00

2: 3.74 600.16 40.36 0.01 0.00 0.00 0.00 0.00 0.00 0.00 0.00 0.00 0.00 0.00 0.00 338.62 287.90 0.24 0.24 0.03 0.03 0.75 0.04 0.03 240.64 180.98 0.72 0.05 0.58 0.00 0.24 0.24 0.03 0.03 1.00 3.74 600.16 40.36 0.01 0.00 0.00 0.00 0.00 0.00 0.00 0.00 0.00 0.00 0.00 0.00 338.62 287.90 0.24 0.24 0.03 0.03 0.75 0.04 0.03 240.64 180.98 0.72 0.05 0.58 0.00 0.24 0.24 0.03 0.03 3.74 600.16 40.36 0.01 0.00 0.00 0.00 0.00 0.00 0.00 0.00 0.00 0.00 0.00 0.00 338.62 287.90 0.24 0.24 0.03 0.03 0.75 0.04 0.03 240.64 180.98 0.72 0.05 0.58 0.00 0.24 0.24 0.03 0.03 1.00 3.74 600.16 40.36 0.01 0.00 0.00 0.00 0.00 0.00 0.00 0.00 0.00 0.00 0.00 0.00 338.62 287.90 0.24 0.24 0.03 0.03 0.75 0.04 0.03 240.64 180.98 0.72 0.05 0.58 0.00 0.24 0.24 0.03 0.03

3: 21.48 303.12 20528.08 0.00 0.00 0.03 0.00 0.16 0.00 0.00 0.17 0.01 0.00 0.00 0.00 7.59 11.10 0.00 0.01 0.00 0.00 1.00 0.00 0.13 130.51 246.12 0.99 0.00 0.06 0.02 0.00 0.00 0.00 0.00 1.00 21.48 303.12 20528.08 0.00 0.00 0.03 0.00 0.16 0.00 0.00 0.17 0.01 0.00 0.00 0.00 7.59 11.10 0.00 0.01 0.00 0.00 1.00 0.00 0.13 130.51 246.12 0.99 0.00 0.06 0.02 0.00 0.00 0.00 0.00 21.48 303.12 20528.08 0.00 0.00 0.03 0.00 0.16 0.00 0.00 0.17 0.01 0.00 0.00 0.00 7.59 11.10 0.00 0.01 0.00 0.00 1.00 0.00 0.13 130.51 246.12 0.99 0.00 0.06 0.02 0.00 0.00 0.00 0.00 1.00 21.48 303.12 20528.08 0.00 0.00 0.03 0.00 0.16 0.00 0.00 0.17 0.01 0.00 0.00 0.00 7.59 11.10 0.00 0.01 0.00 0.00 1.00 0.00 0.13 130.51 246.12 0.99 0.00 0.06 0.02 0.00 0.00 0.00 0.00

4: 0.31 264.14 2561.85 0.00 0.00 0.06 0.00 0.00 0.00 0.00 0.00 0.00 0.00 0.01 0.00 9.81 13.92 0.00 0.00 0.00 0.00 1.00 0.00 0.10 132.64 245.89 0.99 0.00 0.05 0.02 0.00 0.00 0.00 0.00 1.00 0.31 264.14 2561.85 0.00 0.00 0.06 0.00 0.00 0.00 0.00 0.00 0.00 0.00 0.01 0.00 9.81 13.92 0.00 0.00 0.00 0.00 1.00 0.00 0.10 132.64 245.89 0.99 0.00 0.05 0.02 0.00 0.00 0.00 0.00 0.31 264.14 2561.85 0.00 0.00 0.06 0.00 0.00 0.00 0.00 0.00 0.00 0.00 0.01 0.00 9.81 13.92 0.00 0.00 0.00 0.00 1.00 0.00 0.10 132.64 245.89 0.99 0.00 0.05 0.02 0.00 0.00 0.00 0.00 1.00 0.31 264.14 2561.85 0.00 0.00 0.06 0.00 0.00 0.00 0.00 0.00 0.00 0.00 0.01 0.00 9.81 13.92 0.00 0.00 0.00 0.00 1.00 0.00 0.10 132.64 245.89 0.99 0.00 0.05 0.02 0.00 0.00 0.00 0.00

Number of Iteration: 1
Time for I/O: 0.00000sec
Time for Entire Clustering: 0.00000sec
Root Mean Squared Error: 55443.000
