

        *** GPGPU-Sim Simulator Version 3.2.2  [build 0] ***


GPGPU-Sim PTX: simulation mode 0 (can change with PTX_SIM_MODE_FUNC environment variable:
               1=functional simulation only, 0=detailed performance simulator)
GPGPU-Sim: Configuration options:

-network_mode                           1 # Interconnection network mode
-inter_config_file   config_fermi_islip.icnt # Interconnection network config file
-gpgpu_ptx_use_cuobjdump                    1 # Use cuobjdump to extract ptx and sass from binaries
-gpgpu_experimental_lib_support                    0 # Try to extract code from cuda libraries [Broken because of unknown cudaGetExportTable]
-gpgpu_ptx_convert_to_ptxplus                    0 # Convert SASS (native ISA) to ptxplus and run ptxplus
-gpgpu_ptx_force_max_capability                   20 # Force maximum compute capability
-gpgpu_ptx_inst_debug_to_file                    0 # Dump executed instructions' debug information to file
-gpgpu_ptx_inst_debug_file       inst_debug.txt # Executed instructions' debug output file
-gpgpu_ptx_inst_debug_thread_uid                    1 # Thread UID for executed instructions' debug output
-gpgpu_simd_model                       1 # 1 = post-dominator
-gpgpu_shader_core_pipeline              1536:32 # shader core pipeline config, i.e., {<nthread>:<warpsize>}
-gpgpu_tex_cache:l1  4:128:24,L:R:m:N:L,F:128:4,128:2 # per-shader L1 texture cache  (READ-ONLY) config  {<nsets>:<bsize>:<assoc>,<rep>:<wr>:<alloc>:<wr_alloc>,<mshr>:<N>:<merge>,<mq>:<rf>}
-gpgpu_const_cache:l1 64:64:2,L:R:f:N:L,A:2:32,4 # per-shader L1 constant memory cache  (READ-ONLY) config  {<nsets>:<bsize>:<assoc>,<rep>:<wr>:<alloc>:<wr_alloc>,<mshr>:<N>:<merge>,<mq>} 
-gpgpu_cache:il1     4:128:4,L:R:f:N:L,A:2:32,4 # shader L1 instruction cache config  {<nsets>:<bsize>:<assoc>,<rep>:<wr>:<alloc>:<wr_alloc>,<mshr>:<N>:<merge>,<mq>} 
-gpgpu_cache:dl1     64:128:1,L:L:m:N:H,A:32:8,8 # per-shader L1 data cache config  {<nsets>:<bsize>:<assoc>,<rep>:<wr>:<alloc>:<wr_alloc>,<mshr>:<N>:<merge>,<mq> | none}
-gpgpu_cache:dl1PrefL1                 none # per-shader L1 data cache config  {<nsets>:<bsize>:<assoc>,<rep>:<wr>:<alloc>:<wr_alloc>,<mshr>:<N>:<merge>,<mq> | none}
-gpgpu_cache:dl1PreShared                 none # per-shader L1 data cache config  {<nsets>:<bsize>:<assoc>,<rep>:<wr>:<alloc>:<wr_alloc>,<mshr>:<N>:<merge>,<mq> | none}
-gmem_skip_L1D                          0 # global memory access skip L1D cache (implements -Xptxas -dlcm=cg, default=no skip)
-gpgpu_perfect_mem                      0 # enable perfect memory mode (no cache miss)
-n_regfile_gating_group                    4 # group of lanes that should be read/written together)
-gpgpu_clock_gated_reg_file                    0 # enable clock gated reg file for power calculations
-gpgpu_clock_gated_lanes                    0 # enable clock gated lanes for power calculations
-gpgpu_shader_registers                32768 # Number of registers per shader core. Limits number of concurrent CTAs. (default 8192)
-gpgpu_shader_cta                       8 # Maximum number of concurrent CTAs in shader (default 8)
-gpgpu_num_cta_barriers                   16 # Maximum number of named barriers per CTA (default 16)
-gpgpu_n_clusters                      15 # number of processing clusters
-gpgpu_n_cores_per_cluster                    1 # number of simd cores per cluster
-gpgpu_n_cluster_ejection_buffer_size                    8 # number of packets in ejection buffer
-gpgpu_n_ldst_response_buffer_size                    2 # number of response packets in ld/st unit ejection buffer
-gpgpu_shmem_size                   16384 # Size of shared memory per shader core (default 16kB)
-gpgpu_shmem_size                   49152 # Size of shared memory per shader core (default 16kB)
-gpgpu_shmem_size_PrefL1                16384 # Size of shared memory per shader core (default 16kB)
-gpgpu_shmem_size_PrefShared                16384 # Size of shared memory per shader core (default 16kB)
-gpgpu_shmem_num_banks                   32 # Number of banks in the shared memory in each shader core (default 16)
-gpgpu_shmem_limited_broadcast                    0 # Limit shared memory to do one broadcast per cycle (default on)
-gpgpu_shmem_warp_parts                    1 # Number of portions a warp is divided into for shared memory bank conflict check 
-gpgpu_warpdistro_shader                   -1 # Specify which shader core to collect the warp size distribution from
-gpgpu_warp_issue_shader                    0 # Specify which shader core to collect the warp issue distribution from
-gpgpu_local_mem_map                    1 # Mapping from local memory space address to simulated GPU physical address space (default = enabled)
-gpgpu_num_reg_banks                   16 # Number of register banks (default = 8)
-gpgpu_reg_bank_use_warp_id                    0 # Use warp ID in mapping registers to banks (default = off)
-gpgpu_operand_collector_num_units_sp                    6 # number of collector units (default = 4)
-gpgpu_operand_collector_num_units_sfu                    8 # number of collector units (default = 4)
-gpgpu_operand_collector_num_units_mem                    2 # number of collector units (default = 2)
-gpgpu_operand_collector_num_units_gen                    0 # number of collector units (default = 0)
-gpgpu_operand_collector_num_in_ports_sp                    2 # number of collector unit in ports (default = 1)
-gpgpu_operand_collector_num_in_ports_sfu                    1 # number of collector unit in ports (default = 1)
-gpgpu_operand_collector_num_in_ports_mem                    1 # number of collector unit in ports (default = 1)
-gpgpu_operand_collector_num_in_ports_gen                    0 # number of collector unit in ports (default = 0)
-gpgpu_operand_collector_num_out_ports_sp                    2 # number of collector unit in ports (default = 1)
-gpgpu_operand_collector_num_out_ports_sfu                    1 # number of collector unit in ports (default = 1)
-gpgpu_operand_collector_num_out_ports_mem                    1 # number of collector unit in ports (default = 1)
-gpgpu_operand_collector_num_out_ports_gen                    0 # number of collector unit in ports (default = 0)
-gpgpu_coalesce_arch                   13 # Coalescing arch (default = 13, anything else is off for now)
-gpgpu_num_sched_per_core                    2 # Number of warp schedulers per core
-gpgpu_max_insn_issue_per_warp                    1 # Max number of instructions that can be issued per warp in one cycle by scheduler
-gpgpu_simt_core_sim_order                    1 # Select the simulation order of cores in a cluster (0=Fix, 1=Round-Robin)
-gpgpu_pipeline_widths        2,1,1,2,1,1,2 # Pipeline widths ID_OC_SP,ID_OC_SFU,ID_OC_MEM,OC_EX_SP,OC_EX_SFU,OC_EX_MEM,EX_WB
-gpgpu_num_sp_units                     2 # Number of SP units (default=1)
-gpgpu_num_sfu_units                    1 # Number of SF units (default=1)
-gpgpu_num_mem_units                    1 # Number if ldst units (default=1) WARNING: not hooked up to anything
-gpgpu_scheduler                      gto # Scheduler configuration: < lrr | gto | two_level_active > If two_level_active:<num_active_warps>:<inner_prioritization>:<outer_prioritization>For complete list of prioritization values see shader.h enum scheduler_prioritization_typeDefault: gto
-gpgpu_dram_scheduler                    1 # 0 = fifo, 1 = FR-FCFS (defaul)
-gpgpu_dram_partition_queues              8:8:8:8 # i2$:$2d:d2$:$2i
-l2_ideal                               0 # Use a ideal L2 cache that always hit
-gpgpu_cache:dl2     64:128:8,L:B:m:W:L,A:32:4,4:0,32 # unified banked L2 data cache config  {<nsets>:<bsize>:<assoc>,<rep>:<wr>:<alloc>:<wr_alloc>,<mshr>:<N>:<merge>,<mq>}
-gpgpu_cache:dl2_texture_only                    0 # L2 cache used for texture only
-gpgpu_n_mem                            6 # number of memory modules (e.g. memory controllers) in gpu
-gpgpu_n_sub_partition_per_mchannel                    2 # number of memory subpartition in each memory module
-gpgpu_n_mem_per_ctrlr                    2 # number of memory chips per memory controller
-gpgpu_memlatency_stat                   14 # track and display latency statistics 0x2 enables MC, 0x4 enables queue logs
-gpgpu_frfcfs_dram_sched_queue_size                   16 # 0 = unlimited (default); # entries per chip
-gpgpu_dram_return_queue_size                  116 # 0 = unlimited (default); # entries per chip
-gpgpu_dram_buswidth                    4 # default = 4 bytes (8 bytes per cycle at DDR)
-gpgpu_dram_burst_length                    8 # Burst length of each DRAM request (default = 4 data bus cycle)
-dram_data_command_freq_ratio                    4 # Frequency ratio between DRAM data bus and command bus (default = 2 times, i.e. DDR)
-gpgpu_dram_timing_opt nbk=16:CCD=2:RRD=6:RCD=12:RAS=28:RP=12:RC=40: CL=12:WL=4:CDLR=5:WR=12:nbkgrp=4:CCDL=3:RTPL=2 # DRAM timing parameters = {nbk:tCCD:tRRD:tRCD:tRAS:tRP:tRC:CL:WL:tCDLR:tWR:nbkgrp:tCCDL:tRTPL}
-rop_latency                          120 # ROP queue latency (default 85)
-dram_latency                         100 # DRAM latency (default 30)
-gpgpu_mem_addr_mapping dramid@8;00000000.00000000.00000000.00000000.0000RRRR.RRRRRRRR.BBBCCCCB.CCSSSSSS # mapping memory address to dram model {dramid@<start bit>;<memory address map>}
-gpgpu_mem_addr_test                    0 # run sweep test to check address mapping for aliased address
-gpgpu_mem_address_mask                    1 # 0 = old addressing mask, 1 = new addressing mask, 2 = new add. mask + flipped bank sel and chip sel bits
-gpuwattch_xml_file  gpuwattch_gtx480.xml # GPUWattch XML file
-power_simulation_enabled                    1 # Turn on power simulator (1=On, 0=Off)
-power_per_cycle_dump                    0 # Dump detailed power output each cycle
-power_trace_enabled                    0 # produce a file for the power trace (1=On, 0=Off)
-power_trace_zlevel                     6 # Compression level of the power trace output log (0=no comp, 9=highest)
-steady_power_levels_enabled                    0 # produce a file for the steady power levels (1=On, 0=Off)
-steady_state_definition                  8:4 # allowed deviation:number of samples
-gpgpu_max_cycle                        0 # terminates gpu simulation early (0 = no limit)
-gpgpu_max_insn                         0 # terminates gpu simulation early (0 = no limit)
-gpgpu_max_cta                          0 # terminates gpu simulation early (0 = no limit)
-gpgpu_runtime_stat                   500 # display runtime statistics such as dram utilization {<freq>:<flag>}
-liveness_message_freq                    1 # Minimum number of seconds between simulation liveness messages (0 = always print)
-gpgpu_flush_l1_cache                    0 # Flush L1 cache at the end of each kernel call
-gpgpu_flush_l2_cache                    0 # Flush L2 cache at the end of each kernel call
-gpgpu_deadlock_detect                    1 # Stop the simulation at deadlock (1=on (default), 0=off)
-gpgpu_ptx_instruction_classification                    0 # if enabled will classify ptx instruction types per kernel (Max 255 kernels now)
-gpgpu_ptx_sim_mode                     0 # Select between Performance (default) or Functional simulation (1)
-gpgpu_clock_domains 700.0:700.0:700.0:924.0 # Clock Domain Frequencies in MhZ {<Core Clock>:<ICNT Clock>:<L2 Clock>:<DRAM Clock>}
-gpgpu_max_concurrent_kernel                    8 # maximum kernels that can run concurrently on GPU
-gpgpu_cflog_interval                    0 # Interval between each snapshot in control flow logger
-visualizer_enabled                     0 # Turn on visualizer output (1=On, 0=Off)
-visualizer_outputfile                 NULL # Specifies the output log file for visualizer
-visualizer_zlevel                      6 # Compression level of the visualizer output log (0=no comp, 9=highest)
-trace_enabled                          0 # Turn on traces
-trace_components                    none # comma seperated list of traces to enable. Complete list found in trace_streams.tup. Default none
-trace_sampling_core                    0 # The core which is printed using CORE_DPRINTF. Default 0
-trace_sampling_memory_partition                   -1 # The memory partition which is printed using MEMPART_DPRINTF. Default -1 (i.e. all)
-enable_ptx_file_line_stats                    1 # Turn on PTX source line statistic profiling. (1 = On)
-ptx_line_stats_filename gpgpu_inst_stats.txt # Output file for PTX source line statistics.
-save_embedded_ptx                      0 # saves ptx files embedded in binary as <n>.ptx
-keep                                   0 # keep intermediate files created by GPGPU-Sim when interfacing with external programs
-gpgpu_ptx_save_converted_ptxplus                    0 # Saved converted ptxplus to a file
-ptx_opcode_latency_int         4,13,4,5,145 # Opcode latencies for integers <ADD,MAX,MUL,MAD,DIV>Default 1,1,19,25,145
-ptx_opcode_latency_fp          4,13,4,5,39 # Opcode latencies for single precision floating points <ADD,MAX,MUL,MAD,DIV>Default 1,1,1,1,30
-ptx_opcode_latency_dp         8,19,8,8,330 # Opcode latencies for double precision floating points <ADD,MAX,MUL,MAD,DIV>Default 8,8,8,8,335
-ptx_opcode_initiation_int            1,2,2,1,8 # Opcode initiation intervals for integers <ADD,MAX,MUL,MAD,DIV>Default 1,1,4,4,32
-ptx_opcode_initiation_fp            1,2,1,1,4 # Opcode initiation intervals for single precision floating points <ADD,MAX,MUL,MAD,DIV>Default 1,1,1,1,5
-ptx_opcode_initiation_dp         8,16,8,8,130 # Opcode initiation intervals for double precision floating points <ADD,MAX,MUL,MAD,DIV>Default 8,8,8,8,130
DRAM Timing Options:
nbk                                    16 # number of banks
CCD                                     2 # column to column delay
RRD                                     6 # minimal delay between activation of rows in different banks
RCD                                    12 # row to column delay
RAS                                    28 # time needed to activate row
RP                                     12 # time needed to precharge (deactivate) row
RC                                     40 # row cycle time
CDLR                                    5 # switching from write to read (changes tWTR)
WR                                     12 # last data-in to row precharge
CL                                     12 # CAS latency
WL                                      4 # Write latency
nbkgrp                                  4 # number of bank groups
CCDL                                    3 # column to column delay between accesses to different bank groups
RTPL                                    2 # read to precharge delay between accesses to different bank groups
Total number of memory sub partition = 12
addr_dec_mask[CHIP]  = 0000000000000000 	high:64 low:0
addr_dec_mask[BK]    = 000000000000e100 	high:16 low:8
addr_dec_mask[ROW]   = 000000000fff0000 	high:28 low:16
addr_dec_mask[COL]   = 0000000000001eff 	high:13 low:0
addr_dec_mask[BURST] = 000000000000003f 	high:6 low:0
sub_partition_id_mask = 0000000000000100
GPGPU-Sim uArch: clock freqs: 700000000.000000:700000000.000000:700000000.000000:924000000.000000
GPGPU-Sim uArch: clock periods: 0.00000000142857142857:0.00000000142857142857:0.00000000142857142857:0.00000000108225108225
*** Initializing Memory Statistics ***
GPGPU-Sim uArch: interconnect node map (shaderID+MemID to icntID)
GPGPU-Sim uArch: Memory nodes ID start from index: 15
GPGPU-Sim uArch:    0   1   2   3   4
GPGPU-Sim uArch:    5   6   7   8   9
GPGPU-Sim uArch:   10  11  12  13  14
GPGPU-Sim uArch:   15  16  17  18  19
GPGPU-Sim uArch:   20  21  22  23  24
GPGPU-Sim uArch:   25  26
GPGPU-Sim uArch: interconnect node reverse map (icntID to shaderID+MemID)
GPGPU-Sim uArch: Memory nodes start from ID: 15
GPGPU-Sim uArch:    0   1   2   3   4
GPGPU-Sim uArch:    5   6   7   8   9
GPGPU-Sim uArch:   10  11  12  13  14
GPGPU-Sim uArch:   15  16  17  18  19
GPGPU-Sim uArch:   20  21  22  23  24
GPGPU-Sim uArch:   25  26
20268b35c91b7ed3425c558353ee2ace  /home/scratch/adwait/applications/benchmarks/CUDA/TRA/gpgpu_ptx_sim__TRA
GPGPU-Sim uArch: performance model initialization complete.
GPGPU-Sim PTX: __cudaRegisterFatBinary, fat_cubin_handle = 1, filename=transpose.cu
self exe links to: /home/scratch/adwait/applications/benchmarks/CUDA/TRA/gpgpu_ptx_sim__TRA
Running md5sum using "md5sum /home/scratch/adwait/applications/benchmarks/CUDA/TRA/gpgpu_ptx_sim__TRA "
Running cuobjdump using "$CUDA_INSTALL_PATH/bin/cuobjdump -ptx -elf -sass /home/scratch/adwait/applications/benchmarks/CUDA/TRA/gpgpu_ptx_sim__TRA > _cuobjdump_complete_output_oqCyTl"
Parsing file _cuobjdump_complete_output_oqCyTl
######### cuobjdump parser ########
## Adding new section ELF
Adding arch: sm_20
Adding identifier: transpose.cu
## Adding new section PTX
Adding ptx filename: _cuobjdump_1.ptx
Adding arch: sm_20
Adding identifier: transpose.cu
Done parsing!!!
GPGPU-Sim PTX: __cudaRegisterFunction _Z15transpose_naivePfS_ii : hostFun 0x0x4048d7, fat_cubin_handle = 1
GPGPU-Sim PTX: allocating shared region for "__cuda___cuda_local_var_42723_32_non_const_block24" from 0x0 to 0x440 (shared memory space)
GPGPU-Sim PTX: instruction assembly for function '_Z9transposePfS_ii'...   done.
GPGPU-Sim PTX: finding reconvergence points for '_Z9transposePfS_ii'...
GPGPU-Sim PTX: Finding dominators for '_Z9transposePfS_ii'...
GPGPU-Sim PTX: Finding immediate dominators for '_Z9transposePfS_ii'...
GPGPU-Sim PTX: Finding postdominators for '_Z9transposePfS_ii'...
GPGPU-Sim PTX: Finding immediate postdominators for '_Z9transposePfS_ii'...
GPGPU-Sim PTX: pre-decoding instructions for '_Z9transposePfS_ii'...
GPGPU-Sim PTX: reconvergence points for _Z9transposePfS_ii...
GPGPU-Sim PTX:  1 (potential) branch divergence @  PC=0x088 (_1.ptx:81) @%p1 bra $Lt_0_2306;
GPGPU-Sim PTX:    immediate post dominator      @  PC=0x108 (_1.ptx:99) mov.u64 %rd1, __cuda___cuda_local_var_42723_32_non_const_block24;
GPGPU-Sim PTX:  2 (potential) branch divergence @  PC=0x160 (_1.ptx:111) @%p2 bra $Lt_0_2818;
GPGPU-Sim PTX:    immediate post dominator      @  PC=0x1d8 (_1.ptx:129) exit;
GPGPU-Sim PTX: ... end of reconvergence points for _Z9transposePfS_ii
GPGPU-Sim PTX: ... done pre-decoding instructions for '_Z9transposePfS_ii'.
GPGPU-Sim PTX: instruction assembly for function '_Z15transpose_naivePfS_ii'...   done.
GPGPU-Sim PTX: finding reconvergence points for '_Z15transpose_naivePfS_ii'...
GPGPU-Sim PTX: Finding dominators for '_Z15transpose_naivePfS_ii'...
GPGPU-Sim PTX: Finding immediate dominators for '_Z15transpose_naivePfS_ii'...
GPGPU-Sim PTX: Finding postdominators for '_Z15transpose_naivePfS_ii'...
GPGPU-Sim PTX: Finding immediate postdominators for '_Z15transpose_naivePfS_ii'...
GPGPU-Sim PTX: pre-decoding instructions for '_Z15transpose_naivePfS_ii'...
GPGPU-Sim PTX: reconvergence points for _Z15transpose_naivePfS_ii...
GPGPU-Sim PTX:  1 (potential) branch divergence @  PC=0x278 (_1.ptx:164) @%p1 bra $Lt_1_1282;
GPGPU-Sim PTX:    immediate post dominator      @  PC=0x2f0 (_1.ptx:182) exit;
GPGPU-Sim PTX: ... end of reconvergence points for _Z15transpose_naivePfS_ii
GPGPU-Sim PTX: ... done pre-decoding instructions for '_Z15transpose_naivePfS_ii'.
GPGPU-Sim PTX: finished parsing EMBEDDED .ptx file _1.ptx
Adding _cuobjdump_1.ptx with cubin handle 1
GPGPU-Sim PTX: extracting embedded .ptx to temporary file "_ptx_JmrBBB"
Running: cat _ptx_JmrBBB | sed 's/.version 1.5/.version 1.4/' | sed 's/, texmode_independent//' | sed 's/\(\.extern \.const\[1\] .b8 \w\+\)\[\]/\1\[1\]/' | sed 's/const\[.\]/const\[0\]/g' > _ptx2_6NOXjR
GPGPU-Sim PTX: generating ptxinfo using "$CUDA_INSTALL_PATH/bin/ptxas --gpu-name=sm_20 -v _ptx2_6NOXjR --output-file  /dev/null 2> _ptx_JmrBBBinfo"
GPGPU-Sim PTX: Kernel '_Z15transpose_naivePfS_ii' : regs=8, lmem=0, smem=0, cmem=56
GPGPU-Sim PTX: Kernel '_Z9transposePfS_ii' : regs=9, lmem=0, smem=1088, cmem=56
GPGPU-Sim PTX: removing ptxinfo using "rm -f _ptx_JmrBBB _ptx2_6NOXjR _ptx_JmrBBBinfo"
GPGPU-Sim PTX: loading globals with explicit initializers... 
GPGPU-Sim PTX: finished loading globals (0 bytes total).
GPGPU-Sim PTX: loading constants with explicit initializers...  done.
GPGPU-Sim PTX: __cudaRegisterFunction _Z9transposePfS_ii : hostFun 0x0x4047e7, fat_cubin_handle = 1

GPGPU-Sim PTX: cudaLaunch for 0x0x4048d7 (mode=performance simulation) on stream 0
GPGPU-Sim PTX: pushing kernel '_Z15transpose_naivePfS_ii' to stream 0, gridDim= (16,256,1) blockDim = (16,16,1) 
kernel '_Z15transpose_naivePfS_ii' transfer to GPU hardware scheduler
GPGPU-Sim uArch: Shader 1 bind to kernel 1 '_Z15transpose_naivePfS_ii'
GPGPU-Sim uArch: CTA/core = 6, limited by: threads
GPGPU-Sim uArch: core:  1, cta: 0 initialized @(1,0)
GPGPU-Sim uArch: Shader 2 bind to kernel 1 '_Z15transpose_naivePfS_ii'
GPGPU-Sim uArch: core:  2, cta: 0 initialized @(1,0)
GPGPU-Sim uArch: Shader 3 bind to kernel 1 '_Z15transpose_naivePfS_ii'
GPGPU-Sim uArch: core:  3, cta: 0 initialized @(1,0)
GPGPU-Sim uArch: Shader 4 bind to kernel 1 '_Z15transpose_naivePfS_ii'
GPGPU-Sim uArch: core:  4, cta: 0 initialized @(1,0)
GPGPU-Sim uArch: Shader 5 bind to kernel 1 '_Z15transpose_naivePfS_ii'
GPGPU-Sim uArch: core:  5, cta: 0 initialized @(1,0)
GPGPU-Sim uArch: Shader 6 bind to kernel 1 '_Z15transpose_naivePfS_ii'
GPGPU-Sim uArch: core:  6, cta: 0 initialized @(1,0)
GPGPU-Sim uArch: Shader 7 bind to kernel 1 '_Z15transpose_naivePfS_ii'
GPGPU-Sim uArch: core:  7, cta: 0 initialized @(1,0)
GPGPU-Sim uArch: Shader 8 bind to kernel 1 '_Z15transpose_naivePfS_ii'
GPGPU-Sim uArch: core:  8, cta: 0 initialized @(1,0)
GPGPU-Sim uArch: Shader 9 bind to kernel 1 '_Z15transpose_naivePfS_ii'
GPGPU-Sim uArch: core:  9, cta: 0 initialized @(1,0)
GPGPU-Sim uArch: Shader 10 bind to kernel 1 '_Z15transpose_naivePfS_ii'
GPGPU-Sim uArch: core: 10, cta: 0 initialized @(1,0)
GPGPU-Sim uArch: Shader 11 bind to kernel 1 '_Z15transpose_naivePfS_ii'
GPGPU-Sim uArch: core: 11, cta: 0 initialized @(1,0)
GPGPU-Sim uArch: Shader 12 bind to kernel 1 '_Z15transpose_naivePfS_ii'
GPGPU-Sim uArch: core: 12, cta: 0 initialized @(1,0)
GPGPU-Sim uArch: Shader 13 bind to kernel 1 '_Z15transpose_naivePfS_ii'
GPGPU-Sim uArch: core: 13, cta: 0 initialized @(1,0)
GPGPU-Sim uArch: Shader 14 bind to kernel 1 '_Z15transpose_naivePfS_ii'
GPGPU-Sim uArch: core: 14, cta: 0 initialized @(1,0)
GPGPU-Sim uArch: Shader 0 bind to kernel 1 '_Z15transpose_naivePfS_ii'
GPGPU-Sim uArch: core:  0, cta: 0 initialized @(1,0)
GPGPU-Sim uArch: core:  1, cta: 1 initialized @(2,0)
GPGPU-Sim uArch: core:  2, cta: 1 initialized @(2,0)
GPGPU-Sim uArch: core:  3, cta: 1 initialized @(2,0)
GPGPU-Sim uArch: core:  4, cta: 1 initialized @(2,0)
GPGPU-Sim uArch: core:  5, cta: 1 initialized @(2,0)
GPGPU-Sim uArch: core:  6, cta: 1 initialized @(2,0)
GPGPU-Sim uArch: core:  7, cta: 1 initialized @(2,0)
GPGPU-Sim uArch: core:  8, cta: 1 initialized @(2,0)
GPGPU-Sim uArch: core:  9, cta: 1 initialized @(2,0)
GPGPU-Sim uArch: core: 10, cta: 1 initialized @(2,0)
GPGPU-Sim uArch: core: 11, cta: 1 initialized @(2,0)
GPGPU-Sim uArch: core: 12, cta: 1 initialized @(2,0)
GPGPU-Sim uArch: core: 13, cta: 1 initialized @(2,0)
GPGPU-Sim uArch: core: 14, cta: 1 initialized @(2,0)
GPGPU-Sim uArch: core:  0, cta: 1 initialized @(2,0)
GPGPU-Sim uArch: core:  1, cta: 2 initialized @(3,0)
GPGPU-Sim uArch: core:  2, cta: 2 initialized @(3,0)
GPGPU-Sim uArch: core:  3, cta: 2 initialized @(3,0)
GPGPU-Sim uArch: core:  4, cta: 2 initialized @(3,0)
GPGPU-Sim uArch: core:  5, cta: 2 initialized @(3,0)
GPGPU-Sim uArch: core:  6, cta: 2 initialized @(3,0)
GPGPU-Sim uArch: core:  7, cta: 2 initialized @(3,0)
GPGPU-Sim uArch: core:  8, cta: 2 initialized @(3,0)
GPGPU-Sim uArch: core:  9, cta: 2 initialized @(3,0)
GPGPU-Sim uArch: core: 10, cta: 2 initialized @(3,0)
GPGPU-Sim uArch: core: 11, cta: 2 initialized @(3,0)
GPGPU-Sim uArch: core: 12, cta: 2 initialized @(3,0)
GPGPU-Sim uArch: core: 13, cta: 2 initialized @(3,0)
GPGPU-Sim uArch: core: 14, cta: 2 initialized @(3,0)
GPGPU-Sim uArch: core:  0, cta: 2 initialized @(3,0)
GPGPU-Sim uArch: core:  1, cta: 3 initialized @(4,0)
GPGPU-Sim uArch: core:  2, cta: 3 initialized @(4,0)
GPGPU-Sim uArch: core:  3, cta: 3 initialized @(4,0)
GPGPU-Sim uArch: core:  4, cta: 3 initialized @(4,0)
GPGPU-Sim uArch: core:  5, cta: 3 initialized @(4,0)
GPGPU-Sim uArch: core:  6, cta: 3 initialized @(4,0)
GPGPU-Sim uArch: core:  7, cta: 3 initialized @(4,0)
GPGPU-Sim uArch: core:  8, cta: 3 initialized @(4,0)
GPGPU-Sim uArch: core:  9, cta: 3 initialized @(4,0)
GPGPU-Sim uArch: core: 10, cta: 3 initialized @(4,0)
GPGPU-Sim uArch: core: 11, cta: 3 initialized @(4,0)
GPGPU-Sim uArch: core: 12, cta: 3 initialized @(4,0)
GPGPU-Sim uArch: core: 13, cta: 3 initialized @(4,0)
GPGPU-Sim uArch: core: 14, cta: 3 initialized @(4,0)
GPGPU-Sim uArch: core:  0, cta: 3 initialized @(4,0)
GPGPU-Sim uArch: core:  1, cta: 4 initialized @(5,0)
GPGPU-Sim uArch: core:  2, cta: 4 initialized @(5,0)
GPGPU-Sim uArch: core:  3, cta: 4 initialized @(5,0)
GPGPU-Sim uArch: core:  4, cta: 4 initialized @(5,0)
GPGPU-Sim uArch: core:  5, cta: 4 initialized @(5,0)
GPGPU-Sim uArch: core:  6, cta: 4 initialized @(5,0)
GPGPU-Sim uArch: core:  7, cta: 4 initialized @(5,0)
GPGPU-Sim uArch: core:  8, cta: 4 initialized @(5,0)
GPGPU-Sim uArch: core:  9, cta: 4 initialized @(5,0)
GPGPU-Sim uArch: core: 10, cta: 4 initialized @(5,0)
GPGPU-Sim uArch: core: 11, cta: 4 initialized @(5,0)
GPGPU-Sim uArch: core: 12, cta: 4 initialized @(5,0)
GPGPU-Sim uArch: core: 13, cta: 4 initialized @(5,0)
GPGPU-Sim uArch: core: 14, cta: 4 initialized @(5,0)
GPGPU-Sim uArch: core:  0, cta: 4 initialized @(5,0)
GPGPU-Sim uArch: core:  1, cta: 5 initialized @(6,0)
GPGPU-Sim uArch: core:  2, cta: 5 initialized @(6,0)
GPGPU-Sim uArch: core:  3, cta: 5 initialized @(6,0)
GPGPU-Sim uArch: core:  4, cta: 5 initialized @(6,0)
GPGPU-Sim uArch: core:  5, cta: 5 initialized @(6,0)
GPGPU-Sim uArch: core:  6, cta: 5 initialized @(6,0)
GPGPU-Sim uArch: core:  7, cta: 5 initialized @(6,0)
GPGPU-Sim uArch: core:  8, cta: 5 initialized @(6,0)
GPGPU-Sim uArch: core:  9, cta: 5 initialized @(6,0)
GPGPU-Sim uArch: core: 10, cta: 5 initialized @(6,0)
GPGPU-Sim uArch: core: 11, cta: 5 initialized @(6,0)
GPGPU-Sim uArch: core: 12, cta: 5 initialized @(6,0)
GPGPU-Sim uArch: core: 13, cta: 5 initialized @(6,0)
GPGPU-Sim uArch: core: 14, cta: 5 initialized @(6,0)
GPGPU-Sim uArch: core:  0, cta: 5 initialized @(6,0)
GPGPU-Sim uArch: cycles simulated: 500  inst.: 92000 (ipc=184.0) sim_rate=92000 (inst/sec) elapsed = 0:0:00:01 / Tue Apr 16 16:54:33 2019
GPGPU-Sim PTX: 100000 instructions simulated : ctaid=(0,5,0) tid=(15,9,0)
GPGPU-Sim PTX: 200000 instructions simulated : ctaid=(6,1,0) tid=(15,15,0)
GPGPU-Sim PTX: 300000 instructions simulated : ctaid=(1,1,0) tid=(15,11,0)
GPGPU-Sim PTX: 400000 instructions simulated : ctaid=(14,4,0) tid=(15,7,0)
GPGPU-Sim PTX: 500000 instructions simulated : ctaid=(7,2,0) tid=(15,7,0)
GPGPU-Sim uArch: cycles simulated: 1500  inst.: 520928 (ipc=347.3) sim_rate=260464 (inst/sec) elapsed = 0:0:00:02 / Tue Apr 16 16:54:34 2019
GPGPU-Sim PTX: 600000 instructions simulated : ctaid=(5,3,0) tid=(15,7,0)
GPGPU-Sim uArch: cycles simulated: 2000  inst.: 618752 (ipc=309.4) sim_rate=206250 (inst/sec) elapsed = 0:0:00:03 / Tue Apr 16 16:54:35 2019
GPGPU-Sim uArch: cycles simulated: 3500  inst.: 634240 (ipc=181.2) sim_rate=158560 (inst/sec) elapsed = 0:0:00:04 / Tue Apr 16 16:54:36 2019
GPGPU-Sim uArch: cycles simulated: 5000  inst.: 637472 (ipc=127.5) sim_rate=127494 (inst/sec) elapsed = 0:0:00:05 / Tue Apr 16 16:54:37 2019
GPGPU-Sim uArch: cycles simulated: 6500  inst.: 641920 (ipc=98.8) sim_rate=106986 (inst/sec) elapsed = 0:0:00:06 / Tue Apr 16 16:54:38 2019
GPGPU-Sim uArch: cycles simulated: 8000  inst.: 648192 (ipc=81.0) sim_rate=92598 (inst/sec) elapsed = 0:0:00:07 / Tue Apr 16 16:54:39 2019
GPGPU-Sim uArch: cycles simulated: 9500  inst.: 653024 (ipc=68.7) sim_rate=81628 (inst/sec) elapsed = 0:0:00:08 / Tue Apr 16 16:54:40 2019
GPGPU-Sim uArch: cycles simulated: 11500  inst.: 659744 (ipc=57.4) sim_rate=73304 (inst/sec) elapsed = 0:0:00:09 / Tue Apr 16 16:54:41 2019
GPGPU-Sim uArch: cycles simulated: 13500  inst.: 667904 (ipc=49.5) sim_rate=66790 (inst/sec) elapsed = 0:0:00:10 / Tue Apr 16 16:54:42 2019
GPGPU-Sim PTX: 700000 instructions simulated : ctaid=(15,3,0) tid=(15,1,0)
GPGPU-Sim uArch: cycles simulated: 15000  inst.: 675264 (ipc=45.0) sim_rate=61387 (inst/sec) elapsed = 0:0:00:11 / Tue Apr 16 16:54:43 2019
GPGPU-Sim uArch: Shader 1 finished CTA #0 (15453,0), 5 CTAs running
GPGPU-Sim uArch: core:  1, cta: 0 initialized @(15454,0)
GPGPU-Sim uArch: Shader 9 finished CTA #0 (15836,0), 5 CTAs running
GPGPU-Sim uArch: core:  9, cta: 0 initialized @(15837,0)
GPGPU-Sim uArch: Shader 12 finished CTA #0 (16051,0), 5 CTAs running
GPGPU-Sim uArch: core: 12, cta: 0 initialized @(16052,0)
GPGPU-Sim uArch: Shader 5 finished CTA #0 (16435,0), 5 CTAs running
GPGPU-Sim uArch: core:  5, cta: 0 initialized @(16436,0)
GPGPU-Sim uArch: cycles simulated: 17000  inst.: 696672 (ipc=41.0) sim_rate=58056 (inst/sec) elapsed = 0:0:00:12 / Tue Apr 16 16:54:44 2019
GPGPU-Sim uArch: Shader 8 finished CTA #0 (18284,0), 5 CTAs running
GPGPU-Sim uArch: core:  8, cta: 0 initialized @(18285,0)
GPGPU-Sim uArch: Shader 11 finished CTA #0 (18343,0), 5 CTAs running
GPGPU-Sim uArch: core: 11, cta: 0 initialized @(18344,0)
GPGPU-Sim uArch: Shader 2 finished CTA #0 (18605,0), 5 CTAs running
GPGPU-Sim uArch: core:  2, cta: 0 initialized @(18606,0)
GPGPU-Sim uArch: Shader 4 finished CTA #0 (18607,0), 5 CTAs running
GPGPU-Sim uArch: core:  4, cta: 0 initialized @(18608,0)
GPGPU-Sim uArch: Shader 3 finished CTA #0 (18826,0), 5 CTAs running
GPGPU-Sim uArch: core:  3, cta: 0 initialized @(18827,0)
GPGPU-Sim uArch: Shader 7 finished CTA #0 (18916,0), 5 CTAs running
GPGPU-Sim uArch: core:  7, cta: 0 initialized @(18917,0)
GPGPU-Sim uArch: Shader 13 finished CTA #0 (18963,0), 5 CTAs running
GPGPU-Sim uArch: core: 13, cta: 0 initialized @(18964,0)
GPGPU-Sim uArch: cycles simulated: 19000  inst.: 741152 (ipc=39.0) sim_rate=57011 (inst/sec) elapsed = 0:0:00:13 / Tue Apr 16 16:54:45 2019
GPGPU-Sim uArch: Shader 10 finished CTA #0 (19014,0), 5 CTAs running
GPGPU-Sim uArch: core: 10, cta: 0 initialized @(19015,0)
GPGPU-Sim uArch: Shader 14 finished CTA #0 (19339,0), 5 CTAs running
GPGPU-Sim uArch: core: 14, cta: 0 initialized @(19340,0)
GPGPU-Sim uArch: Shader 0 finished CTA #0 (19377,0), 5 CTAs running
GPGPU-Sim uArch: core:  0, cta: 0 initialized @(19378,0)
GPGPU-Sim uArch: Shader 6 finished CTA #0 (20077,0), 5 CTAs running
GPGPU-Sim uArch: core:  6, cta: 0 initialized @(20078,0)
GPGPU-Sim PTX: 800000 instructions simulated : ctaid=(8,6,0) tid=(15,11,0)
GPGPU-Sim uArch: Shader 12 finished CTA #1 (20248,0), 5 CTAs running
GPGPU-Sim uArch: core: 12, cta: 1 initialized @(20249,0)
GPGPU-Sim uArch: cycles simulated: 20500  inst.: 788576 (ipc=38.5) sim_rate=56326 (inst/sec) elapsed = 0:0:00:14 / Tue Apr 16 16:54:46 2019
GPGPU-Sim uArch: Shader 11 finished CTA #1 (20691,0), 5 CTAs running
GPGPU-Sim uArch: core: 11, cta: 1 initialized @(20692,0)
GPGPU-Sim uArch: Shader 8 finished CTA #1 (20743,0), 5 CTAs running
GPGPU-Sim uArch: core:  8, cta: 1 initialized @(20744,0)
GPGPU-Sim uArch: Shader 9 finished CTA #1 (20838,0), 5 CTAs running
GPGPU-Sim uArch: core:  9, cta: 1 initialized @(20839,0)
GPGPU-Sim uArch: Shader 8 finished CTA #2 (21230,0), 5 CTAs running
GPGPU-Sim uArch: core:  8, cta: 2 initialized @(21231,0)
GPGPU-Sim uArch: Shader 11 finished CTA #2 (21243,0), 5 CTAs running
GPGPU-Sim uArch: core: 11, cta: 2 initialized @(21244,0)
GPGPU-Sim uArch: Shader 14 finished CTA #1 (21353,0), 5 CTAs running
GPGPU-Sim uArch: core: 14, cta: 1 initialized @(21354,0)
GPGPU-Sim uArch: Shader 11 finished CTA #3 (21385,0), 5 CTAs running
GPGPU-Sim uArch: core: 11, cta: 3 initialized @(21386,0)
GPGPU-Sim uArch: cycles simulated: 22000  inst.: 828384 (ipc=37.7) sim_rate=55225 (inst/sec) elapsed = 0:0:00:15 / Tue Apr 16 16:54:47 2019
GPGPU-Sim uArch: Shader 13 finished CTA #1 (22133,0), 5 CTAs running
GPGPU-Sim uArch: core: 13, cta: 1 initialized @(22134,0)
GPGPU-Sim uArch: Shader 13 finished CTA #2 (22379,0), 5 CTAs running
GPGPU-Sim uArch: core: 13, cta: 2 initialized @(22380,0)
GPGPU-Sim uArch: Shader 5 finished CTA #1 (23044,0), 5 CTAs running
GPGPU-Sim uArch: core:  5, cta: 1 initialized @(23045,0)
GPGPU-Sim uArch: Shader 1 finished CTA #1 (23148,0), 5 CTAs running
GPGPU-Sim uArch: core:  1, cta: 1 initialized @(23149,0)
GPGPU-Sim uArch: Shader 9 finished CTA #2 (23330,0), 5 CTAs running
GPGPU-Sim uArch: core:  9, cta: 2 initialized @(23331,0)
GPGPU-Sim PTX: 900000 instructions simulated : ctaid=(4,7,0) tid=(15,13,0)
GPGPU-Sim uArch: Shader 9 finished CTA #3 (23656,0), 5 CTAs running
GPGPU-Sim uArch: core:  9, cta: 3 initialized @(23657,0)
GPGPU-Sim uArch: Shader 7 finished CTA #1 (23666,0), 5 CTAs running
GPGPU-Sim uArch: core:  7, cta: 1 initialized @(23667,0)
GPGPU-Sim uArch: Shader 0 finished CTA #1 (23986,0), 5 CTAs running
GPGPU-Sim uArch: core:  0, cta: 1 initialized @(23987,0)
GPGPU-Sim uArch: cycles simulated: 24000  inst.: 881216 (ipc=36.7) sim_rate=55076 (inst/sec) elapsed = 0:0:00:16 / Tue Apr 16 16:54:48 2019
GPGPU-Sim uArch: Shader 9 finished CTA #4 (24021,0), 5 CTAs running
GPGPU-Sim uArch: core:  9, cta: 4 initialized @(24022,0)
GPGPU-Sim uArch: Shader 10 finished CTA #1 (24177,0), 5 CTAs running
GPGPU-Sim uArch: core: 10, cta: 1 initialized @(24178,0)
GPGPU-Sim uArch: Shader 3 finished CTA #1 (24187,0), 5 CTAs running
GPGPU-Sim uArch: core:  3, cta: 1 initialized @(24188,0)
GPGPU-Sim uArch: Shader 2 finished CTA #1 (24248,0), 5 CTAs running
GPGPU-Sim uArch: core:  2, cta: 1 initialized @(24249,0)
GPGPU-Sim uArch: Shader 1 finished CTA #2 (24538,0), 5 CTAs running
GPGPU-Sim uArch: core:  1, cta: 2 initialized @(24539,0)
GPGPU-Sim uArch: Shader 14 finished CTA #2 (24586,0), 5 CTAs running
GPGPU-Sim uArch: core: 14, cta: 2 initialized @(24587,0)
GPGPU-Sim uArch: Shader 7 finished CTA #2 (25239,0), 5 CTAs running
GPGPU-Sim uArch: core:  7, cta: 2 initialized @(25240,0)
GPGPU-Sim uArch: Shader 8 finished CTA #3 (25241,0), 5 CTAs running
GPGPU-Sim uArch: core:  8, cta: 3 initialized @(25242,0)
GPGPU-Sim uArch: cycles simulated: 25500  inst.: 939968 (ipc=36.9) sim_rate=55292 (inst/sec) elapsed = 0:0:00:17 / Tue Apr 16 16:54:49 2019
GPGPU-Sim uArch: Shader 4 finished CTA #1 (25730,0), 5 CTAs running
GPGPU-Sim uArch: core:  4, cta: 1 initialized @(25731,0)
GPGPU-Sim uArch: Shader 1 finished CTA #3 (25766,0), 5 CTAs running
GPGPU-Sim uArch: core:  1, cta: 3 initialized @(25767,0)
GPGPU-Sim uArch: Shader 11 finished CTA #4 (25823,0), 5 CTAs running
GPGPU-Sim uArch: core: 11, cta: 4 initialized @(25824,0)
GPGPU-Sim PTX: 1000000 instructions simulated : ctaid=(11,7,0) tid=(15,9,0)
GPGPU-Sim uArch: Shader 5 finished CTA #2 (26162,0), 5 CTAs running
GPGPU-Sim uArch: core:  5, cta: 2 initialized @(26163,0)
GPGPU-Sim uArch: Shader 0 finished CTA #2 (26282,0), 5 CTAs running
GPGPU-Sim uArch: core:  0, cta: 2 initialized @(26283,0)
GPGPU-Sim uArch: Shader 5 finished CTA #3 (26313,0), 5 CTAs running
GPGPU-Sim uArch: core:  5, cta: 3 initialized @(26314,0)
GPGPU-Sim uArch: Shader 4 finished CTA #2 (26343,0), 5 CTAs running
GPGPU-Sim uArch: core:  4, cta: 2 initialized @(26344,0)
GPGPU-Sim uArch: Shader 7 finished CTA #3 (26675,0), 5 CTAs running
GPGPU-Sim uArch: core:  7, cta: 3 initialized @(26676,0)
GPGPU-Sim uArch: Shader 2 finished CTA #2 (26698,0), 5 CTAs running
GPGPU-Sim uArch: core:  2, cta: 2 initialized @(26699,0)
GPGPU-Sim uArch: cycles simulated: 27000  inst.: 1001568 (ipc=37.1) sim_rate=55642 (inst/sec) elapsed = 0:0:00:18 / Tue Apr 16 16:54:50 2019
GPGPU-Sim uArch: Shader 8 finished CTA #4 (27000,0), 5 CTAs running
GPGPU-Sim uArch: core:  8, cta: 4 initialized @(27001,0)
GPGPU-Sim uArch: Shader 13 finished CTA #3 (27098,0), 5 CTAs running
GPGPU-Sim uArch: core: 13, cta: 3 initialized @(27099,0)
GPGPU-Sim uArch: Shader 2 finished CTA #3 (27131,0), 5 CTAs running
GPGPU-Sim uArch: core:  2, cta: 3 initialized @(27132,0)
GPGPU-Sim uArch: Shader 6 finished CTA #1 (27573,0), 5 CTAs running
GPGPU-Sim uArch: core:  6, cta: 1 initialized @(27574,0)
GPGPU-Sim uArch: Shader 4 finished CTA #3 (27598,0), 5 CTAs running
GPGPU-Sim uArch: core:  4, cta: 3 initialized @(27599,0)
GPGPU-Sim uArch: Shader 4 finished CTA #4 (27806,0), 5 CTAs running
GPGPU-Sim uArch: core:  4, cta: 4 initialized @(27807,0)
GPGPU-Sim uArch: Shader 6 finished CTA #2 (27810,0), 5 CTAs running
GPGPU-Sim uArch: core:  6, cta: 2 initialized @(27811,0)
GPGPU-Sim uArch: Shader 3 finished CTA #2 (27900,0), 5 CTAs running
GPGPU-Sim uArch: core:  3, cta: 2 initialized @(27901,0)
GPGPU-Sim uArch: Shader 6 finished CTA #3 (27922,0), 5 CTAs running
GPGPU-Sim uArch: core:  6, cta: 3 initialized @(27923,0)
GPGPU-Sim uArch: Shader 10 finished CTA #2 (28487,0), 5 CTAs running
GPGPU-Sim uArch: core: 10, cta: 2 initialized @(28488,0)
GPGPU-Sim uArch: Shader 1 finished CTA #4 (28494,0), 5 CTAs running
GPGPU-Sim uArch: core:  1, cta: 4 initialized @(28495,0)
GPGPU-Sim uArch: cycles simulated: 28500  inst.: 1055456 (ipc=37.0) sim_rate=55550 (inst/sec) elapsed = 0:0:00:19 / Tue Apr 16 16:54:51 2019
GPGPU-Sim PTX: 1100000 instructions simulated : ctaid=(13,8,0) tid=(15,9,0)
GPGPU-Sim uArch: Shader 9 finished CTA #5 (28701,0), 5 CTAs running
GPGPU-Sim uArch: core:  9, cta: 5 initialized @(28702,0)
GPGPU-Sim uArch: Shader 14 finished CTA #3 (28726,0), 5 CTAs running
GPGPU-Sim uArch: core: 14, cta: 3 initialized @(28727,0)
GPGPU-Sim uArch: Shader 2 finished CTA #4 (28828,0), 5 CTAs running
GPGPU-Sim uArch: core:  2, cta: 4 initialized @(28829,0)
GPGPU-Sim uArch: Shader 5 finished CTA #4 (28877,0), 5 CTAs running
GPGPU-Sim uArch: core:  5, cta: 4 initialized @(28878,0)
GPGPU-Sim uArch: Shader 7 finished CTA #4 (28946,0), 5 CTAs running
GPGPU-Sim uArch: core:  7, cta: 4 initialized @(28947,0)
GPGPU-Sim uArch: Shader 3 finished CTA #3 (29105,0), 5 CTAs running
GPGPU-Sim uArch: core:  3, cta: 3 initialized @(29106,0)
GPGPU-Sim uArch: Shader 6 finished CTA #4 (29117,0), 5 CTAs running
GPGPU-Sim uArch: core:  6, cta: 4 initialized @(29118,0)
GPGPU-Sim uArch: Shader 3 finished CTA #4 (29172,0), 5 CTAs running
GPGPU-Sim uArch: core:  3, cta: 4 initialized @(29173,0)
GPGPU-Sim uArch: Shader 12 finished CTA #2 (29248,0), 5 CTAs running
GPGPU-Sim uArch: core: 12, cta: 2 initialized @(29249,0)
GPGPU-Sim uArch: Shader 10 finished CTA #3 (29289,0), 5 CTAs running
GPGPU-Sim uArch: core: 10, cta: 3 initialized @(29290,0)
GPGPU-Sim uArch: Shader 12 finished CTA #3 (29374,0), 5 CTAs running
GPGPU-Sim uArch: core: 12, cta: 3 initialized @(29375,0)
GPGPU-Sim uArch: Shader 0 finished CTA #3 (29461,0), 5 CTAs running
GPGPU-Sim uArch: core:  0, cta: 3 initialized @(29462,0)
GPGPU-Sim uArch: Shader 13 finished CTA #4 (29494,0), 5 CTAs running
GPGPU-Sim uArch: core: 13, cta: 4 initialized @(29495,0)
GPGPU-Sim uArch: cycles simulated: 30000  inst.: 1131296 (ipc=37.7) sim_rate=56564 (inst/sec) elapsed = 0:0:00:20 / Tue Apr 16 16:54:52 2019
GPGPU-Sim uArch: Shader 4 finished CTA #5 (30466,0), 5 CTAs running
GPGPU-Sim uArch: core:  4, cta: 5 initialized @(30467,0)
GPGPU-Sim PTX: 1200000 instructions simulated : ctaid=(1,8,0) tid=(15,15,0)
GPGPU-Sim uArch: Shader 8 finished CTA #5 (31016,0), 5 CTAs running
GPGPU-Sim uArch: core:  8, cta: 5 initialized @(31017,0)
GPGPU-Sim uArch: Shader 11 finished CTA #5 (31193,0), 5 CTAs running
GPGPU-Sim uArch: core: 11, cta: 5 initialized @(31194,0)
GPGPU-Sim uArch: Shader 10 finished CTA #4 (31584,0), 5 CTAs running
GPGPU-Sim uArch: core: 10, cta: 4 initialized @(31585,0)
GPGPU-Sim uArch: Shader 3 finished CTA #5 (31705,0), 5 CTAs running
GPGPU-Sim uArch: core:  3, cta: 5 initialized @(31706,0)
GPGPU-Sim uArch: Shader 0 finished CTA #4 (31960,0), 5 CTAs running
GPGPU-Sim uArch: core:  0, cta: 4 initialized @(31961,0)
GPGPU-Sim uArch: cycles simulated: 32000  inst.: 1211328 (ipc=37.9) sim_rate=57682 (inst/sec) elapsed = 0:0:00:21 / Tue Apr 16 16:54:53 2019
GPGPU-Sim uArch: Shader 6 finished CTA #5 (32268,0), 5 CTAs running
GPGPU-Sim uArch: core:  6, cta: 5 initialized @(32269,0)
GPGPU-Sim uArch: Shader 14 finished CTA #4 (32991,0), 5 CTAs running
GPGPU-Sim uArch: core: 14, cta: 4 initialized @(32992,0)
GPGPU-Sim uArch: Shader 2 finished CTA #5 (33164,0), 5 CTAs running
GPGPU-Sim uArch: core:  2, cta: 5 initialized @(33165,0)
GPGPU-Sim uArch: Shader 10 finished CTA #5 (33190,0), 5 CTAs running
GPGPU-Sim uArch: core: 10, cta: 5 initialized @(33191,0)
GPGPU-Sim PTX: 1300000 instructions simulated : ctaid=(7,10,0) tid=(15,13,0)
GPGPU-Sim uArch: Shader 5 finished CTA #5 (33444,0), 5 CTAs running
GPGPU-Sim uArch: core:  5, cta: 5 initialized @(33445,0)
GPGPU-Sim uArch: Shader 1 finished CTA #5 (33483,0), 5 CTAs running
GPGPU-Sim uArch: core:  1, cta: 5 initialized @(33484,0)
GPGPU-Sim uArch: cycles simulated: 33500  inst.: 1269952 (ipc=37.9) sim_rate=57725 (inst/sec) elapsed = 0:0:00:22 / Tue Apr 16 16:54:54 2019
GPGPU-Sim uArch: Shader 13 finished CTA #5 (33600,0), 5 CTAs running
GPGPU-Sim uArch: core: 13, cta: 5 initialized @(33601,0)
GPGPU-Sim uArch: Shader 7 finished CTA #5 (33914,0), 5 CTAs running
GPGPU-Sim uArch: core:  7, cta: 5 initialized @(33915,0)
GPGPU-Sim uArch: Shader 12 finished CTA #4 (33958,0), 5 CTAs running
GPGPU-Sim uArch: core: 12, cta: 4 initialized @(33959,0)
GPGPU-Sim uArch: Shader 4 finished CTA #0 (34298,0), 5 CTAs running
GPGPU-Sim uArch: core:  4, cta: 0 initialized @(34299,0)
GPGPU-Sim uArch: Shader 6 finished CTA #0 (34341,0), 5 CTAs running
GPGPU-Sim uArch: core:  6, cta: 0 initialized @(34342,0)
GPGPU-Sim uArch: Shader 14 finished CTA #5 (34387,0), 5 CTAs running
GPGPU-Sim uArch: core: 14, cta: 5 initialized @(34388,0)
GPGPU-Sim uArch: Shader 3 finished CTA #0 (34951,0), 5 CTAs running
GPGPU-Sim uArch: core:  3, cta: 0 initialized @(34952,0)
GPGPU-Sim PTX: 1400000 instructions simulated : ctaid=(4,11,0) tid=(15,5,0)
GPGPU-Sim uArch: cycles simulated: 35000  inst.: 1360224 (ipc=38.9) sim_rate=59140 (inst/sec) elapsed = 0:0:00:23 / Tue Apr 16 16:54:55 2019
GPGPU-Sim uArch: Shader 4 finished CTA #1 (35293,0), 5 CTAs running
GPGPU-Sim uArch: core:  4, cta: 1 initialized @(35294,0)
GPGPU-Sim uArch: Shader 1 finished CTA #0 (35341,0), 5 CTAs running
GPGPU-Sim uArch: core:  1, cta: 0 initialized @(35342,0)
GPGPU-Sim uArch: Shader 9 finished CTA #0 (35392,0), 5 CTAs running
GPGPU-Sim uArch: core:  9, cta: 0 initialized @(35393,0)
GPGPU-Sim uArch: cycles simulated: 36500  inst.: 1414656 (ipc=38.8) sim_rate=58944 (inst/sec) elapsed = 0:0:00:24 / Tue Apr 16 16:54:56 2019
GPGPU-Sim uArch: Shader 2 finished CTA #0 (36558,0), 5 CTAs running
GPGPU-Sim uArch: core:  2, cta: 0 initialized @(36559,0)
GPGPU-Sim uArch: Shader 2 finished CTA #1 (36805,0), 5 CTAs running
GPGPU-Sim uArch: core:  2, cta: 1 initialized @(36806,0)
GPGPU-Sim uArch: Shader 1 finished CTA #2 (36894,0), 5 CTAs running
GPGPU-Sim uArch: core:  1, cta: 2 initialized @(36895,0)
GPGPU-Sim uArch: Shader 8 finished CTA #0 (37381,0), 5 CTAs running
GPGPU-Sim uArch: core:  8, cta: 0 initialized @(37382,0)
GPGPU-Sim uArch: Shader 7 finished CTA #0 (37954,0), 5 CTAs running
GPGPU-Sim uArch: core:  7, cta: 0 initialized @(37955,0)
GPGPU-Sim uArch: Shader 11 finished CTA #0 (38036,0), 5 CTAs running
GPGPU-Sim uArch: core: 11, cta: 0 initialized @(38037,0)
GPGPU-Sim PTX: 1500000 instructions simulated : ctaid=(11,10,0) tid=(15,9,0)
GPGPU-Sim uArch: Shader 3 finished CTA #1 (38353,0), 5 CTAs running
GPGPU-Sim uArch: core:  3, cta: 1 initialized @(38354,0)
GPGPU-Sim uArch: cycles simulated: 38500  inst.: 1458304 (ipc=37.9) sim_rate=58332 (inst/sec) elapsed = 0:0:00:25 / Tue Apr 16 16:54:57 2019
GPGPU-Sim uArch: Shader 1 finished CTA #1 (38749,0), 5 CTAs running
GPGPU-Sim uArch: core:  1, cta: 1 initialized @(38750,0)
GPGPU-Sim uArch: Shader 5 finished CTA #0 (39074,0), 5 CTAs running
GPGPU-Sim uArch: core:  5, cta: 0 initialized @(39075,0)
GPGPU-Sim uArch: Shader 9 finished CTA #1 (39310,0), 5 CTAs running
GPGPU-Sim uArch: core:  9, cta: 1 initialized @(39311,0)
GPGPU-Sim uArch: Shader 13 finished CTA #0 (39825,0), 5 CTAs running
GPGPU-Sim uArch: core: 13, cta: 0 initialized @(39826,0)
GPGPU-Sim uArch: Shader 12 finished CTA #5 (39875,0), 5 CTAs running
GPGPU-Sim uArch: core: 12, cta: 5 initialized @(39876,0)
GPGPU-Sim uArch: cycles simulated: 40500  inst.: 1516096 (ipc=37.4) sim_rate=58311 (inst/sec) elapsed = 0:0:00:26 / Tue Apr 16 16:54:58 2019
GPGPU-Sim uArch: Shader 5 finished CTA #1 (40507,0), 5 CTAs running
GPGPU-Sim uArch: core:  5, cta: 1 initialized @(40508,0)
GPGPU-Sim uArch: Shader 4 finished CTA #2 (40524,0), 5 CTAs running
GPGPU-Sim uArch: core:  4, cta: 2 initialized @(40525,0)
GPGPU-Sim uArch: Shader 10 finished CTA #0 (40724,0), 5 CTAs running
GPGPU-Sim uArch: core: 10, cta: 0 initialized @(40725,0)
GPGPU-Sim uArch: Shader 10 finished CTA #1 (40801,0), 5 CTAs running
GPGPU-Sim uArch: core: 10, cta: 1 initialized @(40802,0)
GPGPU-Sim uArch: Shader 6 finished CTA #1 (40809,0), 5 CTAs running
GPGPU-Sim uArch: core:  6, cta: 1 initialized @(40810,0)
GPGPU-Sim uArch: Shader 0 finished CTA #5 (40840,0), 5 CTAs running
GPGPU-Sim uArch: core:  0, cta: 5 initialized @(40841,0)
GPGPU-Sim uArch: Shader 14 finished CTA #0 (40992,0), 5 CTAs running
GPGPU-Sim uArch: core: 14, cta: 0 initialized @(40993,0)
GPGPU-Sim PTX: 1600000 instructions simulated : ctaid=(5,8,0) tid=(15,3,0)
GPGPU-Sim uArch: Shader 12 finished CTA #0 (41207,0), 5 CTAs running
GPGPU-Sim uArch: core: 12, cta: 0 initialized @(41208,0)
GPGPU-Sim uArch: Shader 0 finished CTA #0 (41256,0), 5 CTAs running
GPGPU-Sim uArch: core:  0, cta: 0 initialized @(41257,0)
GPGPU-Sim uArch: Shader 8 finished CTA #1 (41724,0), 5 CTAs running
GPGPU-Sim uArch: core:  8, cta: 1 initialized @(41725,0)
GPGPU-Sim uArch: Shader 11 finished CTA #1 (41793,0), 5 CTAs running
GPGPU-Sim uArch: core: 11, cta: 1 initialized @(41794,0)
GPGPU-Sim uArch: cycles simulated: 42000  inst.: 1587200 (ipc=37.8) sim_rate=58785 (inst/sec) elapsed = 0:0:00:27 / Tue Apr 16 16:54:59 2019
GPGPU-Sim uArch: Shader 12 finished CTA #1 (42114,0), 5 CTAs running
GPGPU-Sim uArch: core: 12, cta: 1 initialized @(42115,0)
GPGPU-Sim uArch: Shader 9 finished CTA #2 (42158,0), 5 CTAs running
GPGPU-Sim uArch: core:  9, cta: 2 initialized @(42159,0)
GPGPU-Sim uArch: Shader 2 finished CTA #2 (42603,0), 5 CTAs running
GPGPU-Sim uArch: core:  2, cta: 2 initialized @(42604,0)
GPGPU-Sim uArch: Shader 9 finished CTA #3 (42875,0), 5 CTAs running
GPGPU-Sim uArch: core:  9, cta: 3 initialized @(42876,0)
GPGPU-Sim uArch: cycles simulated: 43000  inst.: 1621824 (ipc=37.7) sim_rate=57922 (inst/sec) elapsed = 0:0:00:28 / Tue Apr 16 16:55:00 2019
GPGPU-Sim uArch: Shader 9 finished CTA #4 (43281,0), 5 CTAs running
GPGPU-Sim uArch: core:  9, cta: 4 initialized @(43282,0)
GPGPU-Sim uArch: Shader 0 finished CTA #1 (43326,0), 5 CTAs running
GPGPU-Sim uArch: core:  0, cta: 1 initialized @(43327,0)
GPGPU-Sim uArch: Shader 3 finished CTA #2 (43574,0), 5 CTAs running
GPGPU-Sim uArch: core:  3, cta: 2 initialized @(43575,0)
GPGPU-Sim uArch: Shader 8 finished CTA #2 (43684,0), 5 CTAs running
GPGPU-Sim uArch: core:  8, cta: 2 initialized @(43685,0)
GPGPU-Sim PTX: 1700000 instructions simulated : ctaid=(6,13,0) tid=(15,7,0)
GPGPU-Sim uArch: Shader 14 finished CTA #1 (43718,0), 5 CTAs running
GPGPU-Sim uArch: core: 14, cta: 1 initialized @(43719,0)
GPGPU-Sim uArch: Shader 13 finished CTA #1 (43900,0), 5 CTAs running
GPGPU-Sim uArch: core: 13, cta: 1 initialized @(43901,0)
GPGPU-Sim uArch: Shader 7 finished CTA #1 (44415,0), 5 CTAs running
GPGPU-Sim uArch: core:  7, cta: 1 initialized @(44416,0)
GPGPU-Sim uArch: cycles simulated: 44500  inst.: 1699328 (ipc=38.2) sim_rate=58597 (inst/sec) elapsed = 0:0:00:29 / Tue Apr 16 16:55:01 2019
GPGPU-Sim uArch: Shader 14 finished CTA #2 (44529,0), 5 CTAs running
GPGPU-Sim uArch: core: 14, cta: 2 initialized @(44530,0)
GPGPU-Sim uArch: Shader 5 finished CTA #2 (44640,0), 5 CTAs running
GPGPU-Sim uArch: core:  5, cta: 2 initialized @(44641,0)
GPGPU-Sim uArch: Shader 13 finished CTA #2 (44677,0), 5 CTAs running
GPGPU-Sim uArch: core: 13, cta: 2 initialized @(44678,0)
GPGPU-Sim uArch: Shader 12 finished CTA #2 (44696,0), 5 CTAs running
GPGPU-Sim uArch: core: 12, cta: 2 initialized @(44697,0)
GPGPU-Sim uArch: Shader 4 finished CTA #3 (45100,0), 5 CTAs running
GPGPU-Sim uArch: core:  4, cta: 3 initialized @(45101,0)
GPGPU-Sim uArch: Shader 11 finished CTA #2 (45111,0), 5 CTAs running
GPGPU-Sim uArch: core: 11, cta: 2 initialized @(45112,0)
GPGPU-Sim uArch: Shader 1 finished CTA #3 (45364,0), 5 CTAs running
GPGPU-Sim uArch: core:  1, cta: 3 initialized @(45365,0)
GPGPU-Sim uArch: Shader 11 finished CTA #3 (45416,0), 5 CTAs running
GPGPU-Sim uArch: core: 11, cta: 3 initialized @(45417,0)
GPGPU-Sim uArch: Shader 10 finished CTA #2 (45452,0), 5 CTAs running
GPGPU-Sim uArch: core: 10, cta: 2 initialized @(45453,0)
GPGPU-Sim uArch: cycles simulated: 45500  inst.: 1739360 (ipc=38.2) sim_rate=57978 (inst/sec) elapsed = 0:0:00:30 / Tue Apr 16 16:55:02 2019
GPGPU-Sim PTX: 1800000 instructions simulated : ctaid=(9,13,0) tid=(15,13,0)
GPGPU-Sim uArch: Shader 7 finished CTA #2 (46160,0), 5 CTAs running
GPGPU-Sim uArch: core:  7, cta: 2 initialized @(46161,0)
GPGPU-Sim uArch: Shader 9 finished CTA #5 (46234,0), 5 CTAs running
GPGPU-Sim uArch: core:  9, cta: 5 initialized @(46235,0)
GPGPU-Sim uArch: Shader 0 finished CTA #2 (46519,0), 5 CTAs running
GPGPU-Sim uArch: core:  0, cta: 2 initialized @(46520,0)
GPGPU-Sim uArch: Shader 8 finished CTA #3 (46824,0), 5 CTAs running
GPGPU-Sim uArch: core:  8, cta: 3 initialized @(46825,0)
GPGPU-Sim uArch: cycles simulated: 47000  inst.: 1788800 (ipc=38.1) sim_rate=57703 (inst/sec) elapsed = 0:0:00:31 / Tue Apr 16 16:55:03 2019
GPGPU-Sim uArch: Shader 5 finished CTA #3 (47013,0), 5 CTAs running
GPGPU-Sim uArch: core:  5, cta: 3 initialized @(47014,0)
GPGPU-Sim uArch: Shader 6 finished CTA #2 (47020,0), 5 CTAs running
GPGPU-Sim uArch: core:  6, cta: 2 initialized @(47021,0)
GPGPU-Sim uArch: Shader 13 finished CTA #3 (47752,0), 5 CTAs running
GPGPU-Sim uArch: core: 13, cta: 3 initialized @(47753,0)
GPGPU-Sim uArch: Shader 10 finished CTA #3 (47933,0), 5 CTAs running
GPGPU-Sim uArch: core: 10, cta: 3 initialized @(47934,0)
GPGPU-Sim uArch: Shader 4 finished CTA #4 (47935,0), 5 CTAs running
GPGPU-Sim uArch: core:  4, cta: 4 initialized @(47936,0)
GPGPU-Sim PTX: 1900000 instructions simulated : ctaid=(10,14,0) tid=(15,3,0)
GPGPU-Sim uArch: Shader 14 finished CTA #3 (48074,0), 5 CTAs running
GPGPU-Sim uArch: core: 14, cta: 3 initialized @(48075,0)
GPGPU-Sim uArch: Shader 3 finished CTA #3 (48430,0), 5 CTAs running
GPGPU-Sim uArch: core:  3, cta: 3 initialized @(48431,0)
GPGPU-Sim uArch: cycles simulated: 48500  inst.: 1867552 (ipc=38.5) sim_rate=58361 (inst/sec) elapsed = 0:0:00:32 / Tue Apr 16 16:55:04 2019
GPGPU-Sim uArch: Shader 12 finished CTA #3 (48506,0), 5 CTAs running
GPGPU-Sim uArch: core: 12, cta: 3 initialized @(48507,0)
GPGPU-Sim uArch: Shader 7 finished CTA #3 (48875,0), 5 CTAs running
GPGPU-Sim uArch: core:  7, cta: 3 initialized @(48876,0)
GPGPU-Sim uArch: Shader 11 finished CTA #4 (49036,0), 5 CTAs running
GPGPU-Sim uArch: core: 11, cta: 4 initialized @(49037,0)
GPGPU-Sim uArch: Shader 8 finished CTA #4 (49038,0), 5 CTAs running
GPGPU-Sim uArch: core:  8, cta: 4 initialized @(49039,0)
GPGPU-Sim uArch: Shader 0 finished CTA #3 (49567,0), 5 CTAs running
GPGPU-Sim uArch: core:  0, cta: 3 initialized @(49568,0)
GPGPU-Sim uArch: Shader 4 finished CTA #5 (49925,0), 5 CTAs running
GPGPU-Sim uArch: core:  4, cta: 5 initialized @(49926,0)
GPGPU-Sim uArch: cycles simulated: 50000  inst.: 1918240 (ipc=38.4) sim_rate=58128 (inst/sec) elapsed = 0:0:00:33 / Tue Apr 16 16:55:05 2019
GPGPU-Sim uArch: Shader 12 finished CTA #4 (50274,0), 5 CTAs running
GPGPU-Sim uArch: core: 12, cta: 4 initialized @(50275,0)
GPGPU-Sim uArch: Shader 9 finished CTA #0 (50331,0), 5 CTAs running
GPGPU-Sim uArch: core:  9, cta: 0 initialized @(50332,0)
GPGPU-Sim PTX: 2000000 instructions simulated : ctaid=(14,12,0) tid=(15,15,0)
GPGPU-Sim uArch: Shader 9 finished CTA #1 (50356,0), 5 CTAs running
GPGPU-Sim uArch: core:  9, cta: 1 initialized @(50357,0)
GPGPU-Sim uArch: Shader 5 finished CTA #4 (50439,0), 5 CTAs running
GPGPU-Sim uArch: core:  5, cta: 4 initialized @(50440,0)
GPGPU-Sim uArch: Shader 13 finished CTA #4 (50443,0), 5 CTAs running
GPGPU-Sim uArch: core: 13, cta: 4 initialized @(50444,0)
GPGPU-Sim uArch: Shader 2 finished CTA #3 (50490,0), 5 CTAs running
GPGPU-Sim uArch: core:  2, cta: 3 initialized @(50491,0)
GPGPU-Sim uArch: Shader 6 finished CTA #3 (50494,0), 5 CTAs running
GPGPU-Sim uArch: core:  6, cta: 3 initialized @(50495,0)
GPGPU-Sim uArch: Shader 10 finished CTA #4 (50565,0), 5 CTAs running
GPGPU-Sim uArch: core: 10, cta: 4 initialized @(50566,0)
GPGPU-Sim uArch: Shader 3 finished CTA #4 (50684,0), 5 CTAs running
GPGPU-Sim uArch: core:  3, cta: 4 initialized @(50685,0)
GPGPU-Sim uArch: Shader 0 finished CTA #4 (51345,0), 5 CTAs running
GPGPU-Sim uArch: core:  0, cta: 4 initialized @(51346,0)
GPGPU-Sim uArch: cycles simulated: 51500  inst.: 2009376 (ipc=39.0) sim_rate=59099 (inst/sec) elapsed = 0:0:00:34 / Tue Apr 16 16:55:06 2019
GPGPU-Sim uArch: Shader 14 finished CTA #4 (51633,0), 5 CTAs running
GPGPU-Sim uArch: core: 14, cta: 4 initialized @(51634,0)
GPGPU-Sim uArch: Shader 5 finished CTA #5 (51700,0), 5 CTAs running
GPGPU-Sim uArch: core:  5, cta: 5 initialized @(51701,0)
GPGPU-Sim uArch: Shader 3 finished CTA #5 (51846,0), 5 CTAs running
GPGPU-Sim uArch: core:  3, cta: 5 initialized @(51847,0)
GPGPU-Sim uArch: Shader 9 finished CTA #2 (51850,0), 5 CTAs running
GPGPU-Sim uArch: core:  9, cta: 2 initialized @(51851,0)
GPGPU-Sim uArch: Shader 11 finished CTA #5 (51874,0), 5 CTAs running
GPGPU-Sim uArch: core: 11, cta: 5 initialized @(51875,0)
GPGPU-Sim PTX: 2100000 instructions simulated : ctaid=(2,16,0) tid=(15,13,0)
GPGPU-Sim uArch: Shader 7 finished CTA #4 (52168,0), 5 CTAs running
GPGPU-Sim uArch: core:  7, cta: 4 initialized @(52169,0)
GPGPU-Sim uArch: Shader 1 finished CTA #4 (52172,0), 5 CTAs running
GPGPU-Sim uArch: core:  1, cta: 4 initialized @(52173,0)
GPGPU-Sim uArch: Shader 10 finished CTA #5 (52373,0), 5 CTAs running
GPGPU-Sim uArch: core: 10, cta: 5 initialized @(52374,0)
GPGPU-Sim uArch: Shader 1 finished CTA #5 (52385,0), 5 CTAs running
GPGPU-Sim uArch: core:  1, cta: 5 initialized @(52386,0)
GPGPU-Sim uArch: Shader 8 finished CTA #5 (52473,0), 5 CTAs running
GPGPU-Sim uArch: core:  8, cta: 5 initialized @(52474,0)
GPGPU-Sim uArch: Shader 2 finished CTA #4 (52687,0), 5 CTAs running
GPGPU-Sim uArch: core:  2, cta: 4 initialized @(52688,0)
GPGPU-Sim uArch: cycles simulated: 53000  inst.: 2074240 (ipc=39.1) sim_rate=59264 (inst/sec) elapsed = 0:0:00:35 / Tue Apr 16 16:55:07 2019
GPGPU-Sim uArch: Shader 1 finished CTA #0 (53176,0), 5 CTAs running
GPGPU-Sim uArch: core:  1, cta: 0 initialized @(53177,0)
GPGPU-Sim uArch: Shader 6 finished CTA #4 (53674,0), 5 CTAs running
GPGPU-Sim uArch: core:  6, cta: 4 initialized @(53675,0)
GPGPU-Sim uArch: Shader 1 finished CTA #2 (53938,0), 5 CTAs running
GPGPU-Sim uArch: core:  1, cta: 2 initialized @(53939,0)
GPGPU-Sim PTX: 2200000 instructions simulated : ctaid=(3,14,0) tid=(15,11,0)
GPGPU-Sim uArch: Shader 4 finished CTA #0 (54529,0), 5 CTAs running
GPGPU-Sim uArch: core:  4, cta: 0 initialized @(54530,0)
GPGPU-Sim uArch: Shader 2 finished CTA #5 (54781,0), 5 CTAs running
GPGPU-Sim uArch: core:  2, cta: 5 initialized @(54782,0)
GPGPU-Sim uArch: cycles simulated: 55000  inst.: 2146048 (ipc=39.0) sim_rate=59612 (inst/sec) elapsed = 0:0:00:36 / Tue Apr 16 16:55:08 2019
GPGPU-Sim uArch: Shader 6 finished CTA #5 (55742,0), 5 CTAs running
GPGPU-Sim uArch: core:  6, cta: 5 initialized @(55743,0)
GPGPU-Sim uArch: Shader 14 finished CTA #5 (55766,0), 5 CTAs running
GPGPU-Sim uArch: core: 14, cta: 5 initialized @(55767,0)
GPGPU-Sim uArch: Shader 8 finished CTA #0 (55814,0), 5 CTAs running
GPGPU-Sim uArch: core:  8, cta: 0 initialized @(55815,0)
GPGPU-Sim uArch: Shader 1 finished CTA #1 (55966,0), 5 CTAs running
GPGPU-Sim uArch: core:  1, cta: 1 initialized @(55967,0)
GPGPU-Sim uArch: Shader 3 finished CTA #0 (56142,0), 5 CTAs running
GPGPU-Sim uArch: core:  3, cta: 0 initialized @(56143,0)
GPGPU-Sim uArch: Shader 11 finished CTA #0 (56420,0), 5 CTAs running
GPGPU-Sim uArch: core: 11, cta: 0 initialized @(56421,0)
GPGPU-Sim uArch: Shader 2 finished CTA #0 (56426,0), 5 CTAs running
GPGPU-Sim uArch: core:  2, cta: 0 initialized @(56427,0)
GPGPU-Sim uArch: cycles simulated: 56500  inst.: 2193216 (ipc=38.8) sim_rate=59276 (inst/sec) elapsed = 0:0:00:37 / Tue Apr 16 16:55:09 2019
GPGPU-Sim uArch: Shader 5 finished CTA #0 (56514,0), 5 CTAs running
GPGPU-Sim uArch: core:  5, cta: 0 initialized @(56515,0)
GPGPU-Sim uArch: Shader 0 finished CTA #5 (56604,0), 5 CTAs running
GPGPU-Sim uArch: core:  0, cta: 5 initialized @(56605,0)
GPGPU-Sim uArch: Shader 2 finished CTA #1 (56701,0), 5 CTAs running
GPGPU-Sim uArch: core:  2, cta: 1 initialized @(56702,0)
GPGPU-Sim uArch: Shader 6 finished CTA #0 (56923,0), 5 CTAs running
GPGPU-Sim uArch: core:  6, cta: 0 initialized @(56924,0)
GPGPU-Sim uArch: Shader 13 finished CTA #5 (56933,0), 5 CTAs running
GPGPU-Sim uArch: core: 13, cta: 5 initialized @(56934,0)
GPGPU-Sim uArch: cycles simulated: 57500  inst.: 2228384 (ipc=38.8) sim_rate=58641 (inst/sec) elapsed = 0:0:00:38 / Tue Apr 16 16:55:10 2019
GPGPU-Sim uArch: Shader 12 finished CTA #5 (57516,0), 5 CTAs running
GPGPU-Sim uArch: core: 12, cta: 5 initialized @(57517,0)
GPGPU-Sim PTX: 2300000 instructions simulated : ctaid=(8,13,0) tid=(15,11,0)
GPGPU-Sim uArch: Shader 14 finished CTA #0 (57796,0), 5 CTAs running
GPGPU-Sim uArch: core: 14, cta: 0 initialized @(57797,0)
GPGPU-Sim uArch: Shader 9 finished CTA #3 (58111,0), 5 CTAs running
GPGPU-Sim uArch: core:  9, cta: 3 initialized @(58112,0)
GPGPU-Sim uArch: Shader 4 finished CTA #1 (58125,0), 5 CTAs running
GPGPU-Sim uArch: core:  4, cta: 1 initialized @(58126,0)
GPGPU-Sim uArch: Shader 7 finished CTA #5 (58229,0), 5 CTAs running
GPGPU-Sim uArch: core:  7, cta: 5 initialized @(58230,0)
GPGPU-Sim uArch: Shader 8 finished CTA #1 (58264,0), 5 CTAs running
GPGPU-Sim uArch: core:  8, cta: 1 initialized @(58265,0)
GPGPU-Sim uArch: cycles simulated: 58500  inst.: 2271328 (ipc=38.8) sim_rate=58239 (inst/sec) elapsed = 0:0:00:39 / Tue Apr 16 16:55:11 2019
GPGPU-Sim uArch: Shader 7 finished CTA #0 (58538,0), 5 CTAs running
GPGPU-Sim uArch: core:  7, cta: 0 initialized @(58539,0)
GPGPU-Sim uArch: Shader 3 finished CTA #1 (58942,0), 5 CTAs running
GPGPU-Sim uArch: core:  3, cta: 1 initialized @(58943,0)
GPGPU-Sim uArch: Shader 1 finished CTA #3 (58963,0), 5 CTAs running
GPGPU-Sim uArch: core:  1, cta: 3 initialized @(58964,0)
GPGPU-Sim uArch: Shader 11 finished CTA #1 (59128,0), 5 CTAs running
GPGPU-Sim uArch: core: 11, cta: 1 initialized @(59129,0)
GPGPU-Sim uArch: Shader 13 finished CTA #0 (59227,0), 5 CTAs running
GPGPU-Sim uArch: core: 13, cta: 0 initialized @(59228,0)
GPGPU-Sim uArch: cycles simulated: 59500  inst.: 2320128 (ipc=39.0) sim_rate=58003 (inst/sec) elapsed = 0:0:00:40 / Tue Apr 16 16:55:12 2019
GPGPU-Sim uArch: Shader 12 finished CTA #0 (59682,0), 5 CTAs running
GPGPU-Sim uArch: core: 12, cta: 0 initialized @(59683,0)
GPGPU-Sim uArch: Shader 1 finished CTA #4 (59696,0), 5 CTAs running
GPGPU-Sim uArch: core:  1, cta: 4 initialized @(59697,0)
GPGPU-Sim uArch: Shader 2 finished CTA #2 (59733,0), 5 CTAs running
GPGPU-Sim uArch: core:  2, cta: 2 initialized @(59734,0)
GPGPU-Sim PTX: 2400000 instructions simulated : ctaid=(6,18,0) tid=(15,5,0)
GPGPU-Sim uArch: Shader 10 finished CTA #0 (60214,0), 5 CTAs running
GPGPU-Sim uArch: core: 10, cta: 0 initialized @(60215,0)
GPGPU-Sim uArch: Shader 8 finished CTA #2 (60571,0), 5 CTAs running
GPGPU-Sim uArch: core:  8, cta: 2 initialized @(60572,0)
GPGPU-Sim uArch: Shader 1 finished CTA #5 (60706,0), 5 CTAs running
GPGPU-Sim uArch: core:  1, cta: 5 initialized @(60707,0)
GPGPU-Sim uArch: Shader 6 finished CTA #1 (61027,0), 5 CTAs running
GPGPU-Sim uArch: core:  6, cta: 1 initialized @(61028,0)
GPGPU-Sim uArch: Shader 3 finished CTA #2 (61472,0), 5 CTAs running
GPGPU-Sim uArch: core:  3, cta: 2 initialized @(61473,0)
GPGPU-Sim uArch: cycles simulated: 61500  inst.: 2413248 (ipc=39.2) sim_rate=58859 (inst/sec) elapsed = 0:0:00:41 / Tue Apr 16 16:55:13 2019
GPGPU-Sim uArch: Shader 9 finished CTA #4 (61606,0), 5 CTAs running
GPGPU-Sim uArch: core:  9, cta: 4 initialized @(61607,0)
GPGPU-Sim uArch: Shader 11 finished CTA #2 (61652,0), 5 CTAs running
GPGPU-Sim uArch: core: 11, cta: 2 initialized @(61653,0)
GPGPU-Sim uArch: Shader 0 finished CTA #0 (61656,0), 5 CTAs running
GPGPU-Sim uArch: core:  0, cta: 0 initialized @(61657,0)
GPGPU-Sim PTX: 2500000 instructions simulated : ctaid=(15,18,0) tid=(15,3,0)
GPGPU-Sim uArch: Shader 12 finished CTA #1 (61817,0), 5 CTAs running
GPGPU-Sim uArch: core: 12, cta: 1 initialized @(61818,0)
GPGPU-Sim uArch: Shader 5 finished CTA #1 (61938,0), 5 CTAs running
GPGPU-Sim uArch: core:  5, cta: 1 initialized @(61939,0)
GPGPU-Sim uArch: Shader 10 finished CTA #1 (61943,0), 5 CTAs running
GPGPU-Sim uArch: core: 10, cta: 1 initialized @(61944,0)
GPGPU-Sim uArch: Shader 13 finished CTA #1 (62330,0), 5 CTAs running
GPGPU-Sim uArch: core: 13, cta: 1 initialized @(62331,0)
GPGPU-Sim uArch: Shader 13 finished CTA #2 (62460,0), 5 CTAs running
GPGPU-Sim uArch: core: 13, cta: 2 initialized @(62461,0)
GPGPU-Sim uArch: Shader 7 finished CTA #1 (62500,0), 5 CTAs running
GPGPU-Sim uArch: core:  7, cta: 1 initialized @(62501,0)
GPGPU-Sim uArch: cycles simulated: 63000  inst.: 2465600 (ipc=39.1) sim_rate=58704 (inst/sec) elapsed = 0:0:00:42 / Tue Apr 16 16:55:14 2019
GPGPU-Sim uArch: Shader 14 finished CTA #1 (63643,0), 5 CTAs running
GPGPU-Sim uArch: core: 14, cta: 1 initialized @(63644,0)
GPGPU-Sim uArch: Shader 13 finished CTA #3 (63707,0), 5 CTAs running
GPGPU-Sim uArch: core: 13, cta: 3 initialized @(63708,0)
GPGPU-Sim uArch: Shader 14 finished CTA #2 (63935,0), 5 CTAs running
GPGPU-Sim uArch: core: 14, cta: 2 initialized @(63936,0)
GPGPU-Sim uArch: Shader 11 finished CTA #3 (63951,0), 5 CTAs running
GPGPU-Sim uArch: core: 11, cta: 3 initialized @(63952,0)
GPGPU-Sim uArch: Shader 2 finished CTA #3 (64401,0), 5 CTAs running
GPGPU-Sim uArch: core:  2, cta: 3 initialized @(64402,0)
GPGPU-Sim uArch: Shader 0 finished CTA #1 (64470,0), 5 CTAs running
GPGPU-Sim uArch: core:  0, cta: 1 initialized @(64471,0)
GPGPU-Sim uArch: cycles simulated: 64500  inst.: 2518432 (ipc=39.0) sim_rate=58568 (inst/sec) elapsed = 0:0:00:43 / Tue Apr 16 16:55:15 2019
GPGPU-Sim PTX: 2600000 instructions simulated : ctaid=(9,19,0) tid=(15,13,0)
GPGPU-Sim uArch: Shader 5 finished CTA #2 (64700,0), 5 CTAs running
GPGPU-Sim uArch: core:  5, cta: 2 initialized @(64701,0)
GPGPU-Sim uArch: Shader 9 finished CTA #5 (65008,0), 5 CTAs running
GPGPU-Sim uArch: core:  9, cta: 5 initialized @(65009,0)
GPGPU-Sim uArch: Shader 3 finished CTA #3 (65175,0), 5 CTAs running
GPGPU-Sim uArch: core:  3, cta: 3 initialized @(65176,0)
GPGPU-Sim uArch: Shader 8 finished CTA #3 (65786,0), 5 CTAs running
GPGPU-Sim uArch: core:  8, cta: 3 initialized @(65787,0)
GPGPU-Sim uArch: Shader 1 finished CTA #0 (65801,0), 5 CTAs running
GPGPU-Sim uArch: core:  1, cta: 0 initialized @(65802,0)
GPGPU-Sim uArch: Shader 0 finished CTA #2 (65836,0), 5 CTAs running
GPGPU-Sim uArch: core:  0, cta: 2 initialized @(65837,0)
GPGPU-Sim uArch: Shader 5 finished CTA #3 (65873,0), 5 CTAs running
GPGPU-Sim uArch: core:  5, cta: 3 initialized @(65874,0)
GPGPU-Sim uArch: Shader 6 finished CTA #2 (65918,0), 5 CTAs running
GPGPU-Sim uArch: core:  6, cta: 2 initialized @(65919,0)
GPGPU-Sim uArch: cycles simulated: 66000  inst.: 2610752 (ipc=39.6) sim_rate=59335 (inst/sec) elapsed = 0:0:00:44 / Tue Apr 16 16:55:16 2019
GPGPU-Sim PTX: 2700000 instructions simulated : ctaid=(3,16,0) tid=(15,11,0)
GPGPU-Sim uArch: Shader 4 finished CTA #2 (66303,0), 5 CTAs running
GPGPU-Sim uArch: core:  4, cta: 2 initialized @(66304,0)
GPGPU-Sim uArch: Shader 7 finished CTA #2 (66799,0), 5 CTAs running
GPGPU-Sim uArch: core:  7, cta: 2 initialized @(66800,0)
GPGPU-Sim uArch: Shader 14 finished CTA #3 (66890,0), 5 CTAs running
GPGPU-Sim uArch: core: 14, cta: 3 initialized @(66891,0)
GPGPU-Sim uArch: Shader 3 finished CTA #4 (66990,0), 5 CTAs running
GPGPU-Sim uArch: core:  3, cta: 4 initialized @(66991,0)
GPGPU-Sim uArch: Shader 6 finished CTA #3 (67133,0), 5 CTAs running
GPGPU-Sim uArch: core:  6, cta: 3 initialized @(67134,0)
GPGPU-Sim uArch: Shader 10 finished CTA #2 (67300,0), 5 CTAs running
GPGPU-Sim uArch: core: 10, cta: 2 initialized @(67301,0)
GPGPU-Sim uArch: Shader 12 finished CTA #2 (67306,0), 5 CTAs running
GPGPU-Sim uArch: core: 12, cta: 2 initialized @(67307,0)
GPGPU-Sim uArch: Shader 4 finished CTA #3 (67489,0), 5 CTAs running
GPGPU-Sim uArch: core:  4, cta: 3 initialized @(67490,0)
GPGPU-Sim uArch: cycles simulated: 67500  inst.: 2659008 (ipc=39.4) sim_rate=59089 (inst/sec) elapsed = 0:0:00:45 / Tue Apr 16 16:55:17 2019
GPGPU-Sim uArch: Shader 4 finished CTA #4 (67669,0), 5 CTAs running
GPGPU-Sim uArch: core:  4, cta: 4 initialized @(67670,0)
GPGPU-Sim uArch: Shader 2 finished CTA #4 (67790,0), 5 CTAs running
GPGPU-Sim uArch: core:  2, cta: 4 initialized @(67791,0)
GPGPU-Sim uArch: Shader 4 finished CTA #5 (67841,0), 5 CTAs running
GPGPU-Sim uArch: core:  4, cta: 5 initialized @(67842,0)
GPGPU-Sim uArch: Shader 0 finished CTA #3 (68100,0), 5 CTAs running
GPGPU-Sim uArch: core:  0, cta: 3 initialized @(68101,0)
GPGPU-Sim uArch: Shader 5 finished CTA #4 (68133,0), 5 CTAs running
GPGPU-Sim uArch: core:  5, cta: 4 initialized @(68134,0)
GPGPU-Sim uArch: Shader 13 finished CTA #4 (68777,0), 5 CTAs running
GPGPU-Sim uArch: core: 13, cta: 4 initialized @(68778,0)
GPGPU-Sim uArch: Shader 8 finished CTA #4 (68861,0), 5 CTAs running
GPGPU-Sim uArch: core:  8, cta: 4 initialized @(68862,0)
GPGPU-Sim uArch: Shader 10 finished CTA #3 (69031,0), 5 CTAs running
GPGPU-Sim uArch: core: 10, cta: 3 initialized @(69032,0)
GPGPU-Sim uArch: Shader 11 finished CTA #4 (69055,0), 5 CTAs running
GPGPU-Sim uArch: core: 11, cta: 4 initialized @(69056,0)
GPGPU-Sim PTX: 2800000 instructions simulated : ctaid=(1,20,0) tid=(15,1,0)
GPGPU-Sim uArch: Shader 10 finished CTA #4 (69231,0), 5 CTAs running
GPGPU-Sim uArch: core: 10, cta: 4 initialized @(69232,0)
GPGPU-Sim uArch: Shader 6 finished CTA #4 (69248,0), 5 CTAs running
GPGPU-Sim uArch: core:  6, cta: 4 initialized @(69249,0)
GPGPU-Sim uArch: cycles simulated: 69500  inst.: 2737504 (ipc=39.4) sim_rate=59510 (inst/sec) elapsed = 0:0:00:46 / Tue Apr 16 16:55:18 2019
GPGPU-Sim uArch: Shader 1 finished CTA #2 (70430,0), 5 CTAs running
GPGPU-Sim uArch: core:  1, cta: 2 initialized @(70431,0)
GPGPU-Sim uArch: Shader 7 finished CTA #3 (70491,0), 5 CTAs running
GPGPU-Sim uArch: core:  7, cta: 3 initialized @(70492,0)
GPGPU-Sim uArch: Shader 5 finished CTA #5 (70559,0), 5 CTAs running
GPGPU-Sim uArch: core:  5, cta: 5 initialized @(70560,0)
GPGPU-Sim uArch: Shader 12 finished CTA #3 (70972,0), 5 CTAs running
GPGPU-Sim uArch: core: 12, cta: 3 initialized @(70973,0)
GPGPU-Sim uArch: cycles simulated: 71000  inst.: 2798304 (ipc=39.4) sim_rate=59538 (inst/sec) elapsed = 0:0:00:47 / Tue Apr 16 16:55:19 2019
GPGPU-Sim uArch: Shader 9 finished CTA #0 (71141,0), 5 CTAs running
GPGPU-Sim uArch: core:  9, cta: 0 initialized @(71142,0)
GPGPU-Sim uArch: Shader 12 finished CTA #4 (71228,0), 5 CTAs running
GPGPU-Sim uArch: core: 12, cta: 4 initialized @(71229,0)
GPGPU-Sim PTX: 2900000 instructions simulated : ctaid=(4,17,0) tid=(15,3,0)
GPGPU-Sim uArch: Shader 0 finished CTA #4 (71570,0), 5 CTAs running
GPGPU-Sim uArch: core:  0, cta: 4 initialized @(71571,0)
GPGPU-Sim uArch: Shader 6 finished CTA #5 (71627,0), 5 CTAs running
GPGPU-Sim uArch: core:  6, cta: 5 initialized @(71628,0)
GPGPU-Sim uArch: Shader 4 finished CTA #0 (71635,0), 5 CTAs running
GPGPU-Sim uArch: core:  4, cta: 0 initialized @(71636,0)
GPGPU-Sim uArch: Shader 10 finished CTA #5 (71886,0), 5 CTAs running
GPGPU-Sim uArch: core: 10, cta: 5 initialized @(71887,0)
GPGPU-Sim uArch: Shader 14 finished CTA #4 (71895,0), 5 CTAs running
GPGPU-Sim uArch: core: 14, cta: 4 initialized @(71896,0)
GPGPU-Sim uArch: Shader 9 finished CTA #1 (71935,0), 5 CTAs running
GPGPU-Sim uArch: core:  9, cta: 1 initialized @(71936,0)
GPGPU-Sim uArch: cycles simulated: 72500  inst.: 2866208 (ipc=39.5) sim_rate=59712 (inst/sec) elapsed = 0:0:00:48 / Tue Apr 16 16:55:20 2019
GPGPU-Sim uArch: Shader 2 finished CTA #5 (72641,0), 5 CTAs running
GPGPU-Sim uArch: core:  2, cta: 5 initialized @(72642,0)
GPGPU-Sim uArch: Shader 1 finished CTA #1 (72719,0), 5 CTAs running
GPGPU-Sim uArch: core:  1, cta: 1 initialized @(72720,0)
GPGPU-Sim uArch: Shader 11 finished CTA #5 (73392,0), 5 CTAs running
GPGPU-Sim uArch: core: 11, cta: 5 initialized @(73393,0)
GPGPU-Sim PTX: 3000000 instructions simulated : ctaid=(5,22,0) tid=(15,15,0)
GPGPU-Sim uArch: Shader 4 finished CTA #1 (73749,0), 5 CTAs running
GPGPU-Sim uArch: core:  4, cta: 1 initialized @(73750,0)
GPGPU-Sim uArch: Shader 9 finished CTA #2 (73846,0), 5 CTAs running
GPGPU-Sim uArch: core:  9, cta: 2 initialized @(73847,0)
GPGPU-Sim uArch: cycles simulated: 74000  inst.: 2932736 (ipc=39.6) sim_rate=59851 (inst/sec) elapsed = 0:0:00:49 / Tue Apr 16 16:55:21 2019
GPGPU-Sim uArch: Shader 7 finished CTA #4 (74041,0), 5 CTAs running
GPGPU-Sim uArch: core:  7, cta: 4 initialized @(74042,0)
GPGPU-Sim uArch: Shader 0 finished CTA #5 (74498,0), 5 CTAs running
GPGPU-Sim uArch: core:  0, cta: 5 initialized @(74499,0)
GPGPU-Sim uArch: Shader 12 finished CTA #5 (74746,0), 5 CTAs running
GPGPU-Sim uArch: core: 12, cta: 5 initialized @(74747,0)
GPGPU-Sim uArch: Shader 14 finished CTA #5 (74898,0), 5 CTAs running
GPGPU-Sim uArch: core: 14, cta: 5 initialized @(74899,0)
GPGPU-Sim uArch: Shader 5 finished CTA #0 (75043,0), 5 CTAs running
GPGPU-Sim uArch: core:  5, cta: 0 initialized @(75044,0)
GPGPU-Sim uArch: Shader 6 finished CTA #0 (75130,0), 5 CTAs running
GPGPU-Sim uArch: core:  6, cta: 0 initialized @(75131,0)
GPGPU-Sim uArch: Shader 2 finished CTA #0 (75156,0), 5 CTAs running
GPGPU-Sim uArch: core:  2, cta: 0 initialized @(75157,0)
GPGPU-Sim uArch: cycles simulated: 75500  inst.: 2979968 (ipc=39.5) sim_rate=59599 (inst/sec) elapsed = 0:0:00:50 / Tue Apr 16 16:55:22 2019
GPGPU-Sim uArch: Shader 3 finished CTA #5 (75566,0), 5 CTAs running
GPGPU-Sim uArch: core:  3, cta: 5 initialized @(75567,0)
GPGPU-Sim uArch: Shader 10 finished CTA #0 (75684,0), 5 CTAs running
GPGPU-Sim uArch: core: 10, cta: 0 initialized @(75685,0)
GPGPU-Sim uArch: Shader 7 finished CTA #5 (75799,0), 5 CTAs running
GPGPU-Sim uArch: core:  7, cta: 5 initialized @(75800,0)
GPGPU-Sim PTX: 3100000 instructions simulated : ctaid=(13,22,0) tid=(15,1,0)
GPGPU-Sim uArch: Shader 0 finished CTA #0 (76373,0), 5 CTAs running
GPGPU-Sim uArch: core:  0, cta: 0 initialized @(76374,0)
GPGPU-Sim uArch: Shader 8 finished CTA #5 (76384,0), 5 CTAs running
GPGPU-Sim uArch: core:  8, cta: 5 initialized @(76385,0)
GPGPU-Sim uArch: Shader 2 finished CTA #1 (76501,0), 5 CTAs running
GPGPU-Sim uArch: core:  2, cta: 1 initialized @(76502,0)
GPGPU-Sim uArch: Shader 11 finished CTA #0 (76513,0), 5 CTAs running
GPGPU-Sim uArch: core: 11, cta: 0 initialized @(76514,0)
GPGPU-Sim uArch: Shader 14 finished CTA #0 (76584,0), 5 CTAs running
GPGPU-Sim uArch: core: 14, cta: 0 initialized @(76585,0)
GPGPU-Sim uArch: Shader 13 finished CTA #5 (76598,0), 5 CTAs running
GPGPU-Sim uArch: core: 13, cta: 5 initialized @(76599,0)
GPGPU-Sim uArch: Shader 10 finished CTA #1 (76854,0), 5 CTAs running
GPGPU-Sim uArch: core: 10, cta: 1 initialized @(76855,0)
GPGPU-Sim uArch: Shader 7 finished CTA #0 (77327,0), 5 CTAs running
GPGPU-Sim uArch: core:  7, cta: 0 initialized @(77328,0)
GPGPU-Sim uArch: Shader 5 finished CTA #1 (77367,0), 5 CTAs running
GPGPU-Sim uArch: core:  5, cta: 1 initialized @(77368,0)
GPGPU-Sim uArch: Shader 8 finished CTA #0 (77369,0), 5 CTAs running
GPGPU-Sim uArch: core:  8, cta: 0 initialized @(77370,0)
GPGPU-Sim uArch: Shader 11 finished CTA #1 (77477,0), 5 CTAs running
GPGPU-Sim uArch: core: 11, cta: 1 initialized @(77478,0)
GPGPU-Sim uArch: cycles simulated: 77500  inst.: 3084192 (ipc=39.8) sim_rate=60474 (inst/sec) elapsed = 0:0:00:51 / Tue Apr 16 16:55:23 2019
GPGPU-Sim uArch: Shader 4 finished CTA #2 (77583,0), 5 CTAs running
GPGPU-Sim uArch: core:  4, cta: 2 initialized @(77584,0)
GPGPU-Sim uArch: Shader 1 finished CTA #3 (77684,0), 5 CTAs running
GPGPU-Sim uArch: core:  1, cta: 3 initialized @(77685,0)
GPGPU-Sim uArch: Shader 6 finished CTA #1 (77722,0), 5 CTAs running
GPGPU-Sim uArch: core:  6, cta: 1 initialized @(77723,0)
GPGPU-Sim PTX: 3200000 instructions simulated : ctaid=(12,18,0) tid=(15,7,0)
GPGPU-Sim uArch: Shader 8 finished CTA #1 (77909,0), 5 CTAs running
GPGPU-Sim uArch: core:  8, cta: 1 initialized @(77910,0)
GPGPU-Sim uArch: Shader 12 finished CTA #0 (78143,0), 5 CTAs running
GPGPU-Sim uArch: core: 12, cta: 0 initialized @(78144,0)
GPGPU-Sim uArch: Shader 3 finished CTA #0 (78172,0), 5 CTAs running
GPGPU-Sim uArch: core:  3, cta: 0 initialized @(78173,0)
GPGPU-Sim uArch: Shader 5 finished CTA #2 (78385,0), 5 CTAs running
GPGPU-Sim uArch: core:  5, cta: 2 initialized @(78386,0)
GPGPU-Sim uArch: cycles simulated: 78500  inst.: 3145600 (ipc=40.1) sim_rate=60492 (inst/sec) elapsed = 0:0:00:52 / Tue Apr 16 16:55:24 2019
GPGPU-Sim uArch: Shader 4 finished CTA #3 (78746,0), 5 CTAs running
GPGPU-Sim uArch: core:  4, cta: 3 initialized @(78747,0)
GPGPU-Sim uArch: Shader 9 finished CTA #3 (79095,0), 5 CTAs running
GPGPU-Sim uArch: core:  9, cta: 3 initialized @(79096,0)
GPGPU-Sim uArch: Shader 9 finished CTA #4 (79294,0), 5 CTAs running
GPGPU-Sim uArch: core:  9, cta: 4 initialized @(79295,0)
GPGPU-Sim uArch: Shader 11 finished CTA #2 (79577,0), 5 CTAs running
GPGPU-Sim uArch: core: 11, cta: 2 initialized @(79578,0)
GPGPU-Sim uArch: Shader 0 finished CTA #1 (79641,0), 5 CTAs running
GPGPU-Sim uArch: core:  0, cta: 1 initialized @(79642,0)
GPGPU-Sim uArch: Shader 13 finished CTA #0 (79667,0), 5 CTAs running
GPGPU-Sim uArch: core: 13, cta: 0 initialized @(79668,0)
GPGPU-Sim uArch: cycles simulated: 80000  inst.: 3186368 (ipc=39.8) sim_rate=60120 (inst/sec) elapsed = 0:0:00:53 / Tue Apr 16 16:55:25 2019
GPGPU-Sim uArch: Shader 3 finished CTA #1 (80041,0), 5 CTAs running
GPGPU-Sim uArch: core:  3, cta: 1 initialized @(80042,0)
GPGPU-Sim uArch: Shader 9 finished CTA #5 (80959,0), 5 CTAs running
GPGPU-Sim uArch: core:  9, cta: 5 initialized @(80960,0)
GPGPU-Sim uArch: Shader 1 finished CTA #4 (80976,0), 5 CTAs running
GPGPU-Sim uArch: core:  1, cta: 4 initialized @(80977,0)
GPGPU-Sim PTX: 3300000 instructions simulated : ctaid=(11,24,0) tid=(15,1,0)
GPGPU-Sim uArch: Shader 13 finished CTA #1 (81494,0), 5 CTAs running
GPGPU-Sim uArch: core: 13, cta: 1 initialized @(81495,0)
GPGPU-Sim uArch: cycles simulated: 81500  inst.: 3227680 (ipc=39.6) sim_rate=59771 (inst/sec) elapsed = 0:0:00:54 / Tue Apr 16 16:55:26 2019
GPGPU-Sim uArch: Shader 3 finished CTA #2 (81532,0), 5 CTAs running
GPGPU-Sim uArch: core:  3, cta: 2 initialized @(81533,0)
GPGPU-Sim uArch: Shader 6 finished CTA #2 (81618,0), 5 CTAs running
GPGPU-Sim uArch: core:  6, cta: 2 initialized @(81619,0)
GPGPU-Sim uArch: Shader 10 finished CTA #2 (82156,0), 5 CTAs running
GPGPU-Sim uArch: core: 10, cta: 2 initialized @(82157,0)
GPGPU-Sim uArch: Shader 7 finished CTA #1 (82416,0), 5 CTAs running
GPGPU-Sim uArch: core:  7, cta: 1 initialized @(82417,0)
GPGPU-Sim uArch: Shader 12 finished CTA #1 (82509,0), 5 CTAs running
GPGPU-Sim uArch: core: 12, cta: 1 initialized @(82510,0)
GPGPU-Sim uArch: Shader 0 finished CTA #2 (82573,0), 5 CTAs running
GPGPU-Sim uArch: core:  0, cta: 2 initialized @(82574,0)
GPGPU-Sim PTX: 3400000 instructions simulated : ctaid=(6,24,0) tid=(15,9,0)
GPGPU-Sim uArch: cycles simulated: 83000  inst.: 3302432 (ipc=39.8) sim_rate=60044 (inst/sec) elapsed = 0:0:00:55 / Tue Apr 16 16:55:27 2019
GPGPU-Sim uArch: Shader 3 finished CTA #3 (83129,0), 5 CTAs running
GPGPU-Sim uArch: core:  3, cta: 3 initialized @(83130,0)
GPGPU-Sim uArch: Shader 13 finished CTA #2 (83315,0), 5 CTAs running
GPGPU-Sim uArch: core: 13, cta: 2 initialized @(83316,0)
GPGPU-Sim uArch: Shader 14 finished CTA #1 (83490,0), 5 CTAs running
GPGPU-Sim uArch: core: 14, cta: 1 initialized @(83491,0)
GPGPU-Sim uArch: Shader 8 finished CTA #2 (83916,0), 5 CTAs running
GPGPU-Sim uArch: core:  8, cta: 2 initialized @(83917,0)
GPGPU-Sim uArch: cycles simulated: 84000  inst.: 3340064 (ipc=39.8) sim_rate=59644 (inst/sec) elapsed = 0:0:00:56 / Tue Apr 16 16:55:28 2019
GPGPU-Sim uArch: Shader 8 finished CTA #3 (84310,0), 5 CTAs running
GPGPU-Sim uArch: core:  8, cta: 3 initialized @(84311,0)
GPGPU-Sim uArch: Shader 2 finished CTA #2 (84385,0), 5 CTAs running
GPGPU-Sim uArch: core:  2, cta: 2 initialized @(84386,0)
GPGPU-Sim uArch: Shader 4 finished CTA #4 (84578,0), 5 CTAs running
GPGPU-Sim uArch: core:  4, cta: 4 initialized @(84579,0)
GPGPU-Sim uArch: Shader 2 finished CTA #3 (84581,0), 5 CTAs running
GPGPU-Sim uArch: core:  2, cta: 3 initialized @(84582,0)
GPGPU-Sim uArch: Shader 13 finished CTA #3 (84746,0), 5 CTAs running
GPGPU-Sim uArch: core: 13, cta: 3 initialized @(84747,0)
GPGPU-Sim PTX: 3500000 instructions simulated : ctaid=(10,18,0) tid=(15,15,0)
GPGPU-Sim uArch: Shader 5 finished CTA #3 (85332,0), 5 CTAs running
GPGPU-Sim uArch: core:  5, cta: 3 initialized @(85333,0)
GPGPU-Sim uArch: Shader 12 finished CTA #2 (85385,0), 5 CTAs running
GPGPU-Sim uArch: core: 12, cta: 2 initialized @(85386,0)
GPGPU-Sim uArch: Shader 6 finished CTA #3 (85447,0), 5 CTAs running
GPGPU-Sim uArch: core:  6, cta: 3 initialized @(85448,0)
GPGPU-Sim uArch: cycles simulated: 85500  inst.: 3414688 (ipc=39.9) sim_rate=59906 (inst/sec) elapsed = 0:0:00:57 / Tue Apr 16 16:55:29 2019
GPGPU-Sim uArch: Shader 1 finished CTA #5 (85572,0), 5 CTAs running
GPGPU-Sim uArch: core:  1, cta: 5 initialized @(85573,0)
GPGPU-Sim uArch: Shader 3 finished CTA #4 (85646,0), 5 CTAs running
GPGPU-Sim uArch: core:  3, cta: 4 initialized @(85647,0)
GPGPU-Sim uArch: Shader 14 finished CTA #2 (86196,0), 5 CTAs running
GPGPU-Sim uArch: core: 14, cta: 2 initialized @(86197,0)
GPGPU-Sim uArch: cycles simulated: 86500  inst.: 3438080 (ipc=39.7) sim_rate=59277 (inst/sec) elapsed = 0:0:00:58 / Tue Apr 16 16:55:30 2019
GPGPU-Sim uArch: Shader 9 finished CTA #0 (86549,0), 5 CTAs running
GPGPU-Sim uArch: core:  9, cta: 0 initialized @(86550,0)
GPGPU-Sim uArch: Shader 0 finished CTA #3 (87035,0), 5 CTAs running
GPGPU-Sim uArch: core:  0, cta: 3 initialized @(87036,0)
GPGPU-Sim uArch: Shader 8 finished CTA #4 (87076,0), 5 CTAs running
GPGPU-Sim uArch: core:  8, cta: 4 initialized @(87077,0)
GPGPU-Sim uArch: Shader 11 finished CTA #3 (87292,0), 5 CTAs running
GPGPU-Sim uArch: core: 11, cta: 3 initialized @(87293,0)
GPGPU-Sim uArch: Shader 13 finished CTA #4 (87386,0), 5 CTAs running
GPGPU-Sim uArch: core: 13, cta: 4 initialized @(87387,0)
GPGPU-Sim uArch: Shader 12 finished CTA #3 (87536,0), 5 CTAs running
GPGPU-Sim uArch: core: 12, cta: 3 initialized @(87537,0)
GPGPU-Sim uArch: Shader 2 finished CTA #4 (87681,0), 5 CTAs running
GPGPU-Sim uArch: core:  2, cta: 4 initialized @(87682,0)
GPGPU-Sim PTX: 3600000 instructions simulated : ctaid=(9,26,0) tid=(15,1,0)
GPGPU-Sim uArch: Shader 3 finished CTA #5 (87975,0), 5 CTAs running
GPGPU-Sim uArch: core:  3, cta: 5 initialized @(87976,0)
GPGPU-Sim uArch: cycles simulated: 88000  inst.: 3500960 (ipc=39.8) sim_rate=59338 (inst/sec) elapsed = 0:0:00:59 / Tue Apr 16 16:55:31 2019
GPGPU-Sim uArch: Shader 7 finished CTA #2 (88010,0), 5 CTAs running
GPGPU-Sim uArch: core:  7, cta: 2 initialized @(88011,0)
[...]
maximum concurrent accesses to same row:
dram[0]:        30        32        32        32        32        32        32        32        32        32        32        31        32        32        32        32 
dram[1]:        32        32        31        27        32        32        32        32        30        32        32        32        32        32        32        32 
dram[2]:        32        31        32        32        32        32        32        32        32        32        32        32        32        32        32        32 
dram[3]:        32        32        28        32        32        32        32        32        32        32        32        32        32        32        32        32 
dram[4]:        27        32        32        32        32        32        32        32        32        32        32        32        32        32        32        32 
dram[5]:        32        32        32        28        32        32        32        32        32        32        32        32        32        32        32        32 
maximum service time to same row:
dram[0]:     26022     28207     26081     28197     26110     32468     26951     30316     27265     29031     27292     26013     26769     28225     25858     28216 
dram[1]:     28453     41810     27554     41800     26528     44921     26244     44456     29269     40335     27560     26665     29555     35126     26212     42999 
dram[2]:     27659     27388     28200     25094     32476     24372     30316     27999     29029     27283     26015     27354     28228     26642     28219     26417 
dram[3]:     41812     28445     41803     27443     44934     26284     44456     26973     40034     26324     26666     29094     35111     29545     43002     29531 
dram[4]:     25257     28204     26090     28194     27741     30366     25731     30307     27700     29029     28760     26202     26775     28222     27000     28213 
dram[5]:     27007     41806     27465     41797     26299     44505     26973     44448     26614     40026     29557     27141     29585     35101     27698     42996 
average row accesses per activate:
dram[0]:  2.161540  2.168294  2.146848  2.159412  2.155420  2.171466  2.176741  2.173318  2.142450  2.152158  2.183448  2.176651  2.201821  2.174172  2.179621  2.177527 
dram[1]:  2.151350  2.153076  2.175902  2.149967  2.173004  2.154484  2.183037  2.162657  2.176927  2.170793  2.174141  2.162054  2.191738  2.178466  2.194031  2.172502 
dram[2]:  2.170816  2.156549  2.155597  2.142870  2.167104  2.161826  2.175295  2.175467  2.159019  2.150771  2.187562  2.187961  2.170477  2.204473  2.179558  2.172991 
dram[3]:  2.156273  2.161299  2.149431  2.175689  2.150868  2.189526  2.159807  2.189030  2.167037  2.181139  2.165968  2.155395  2.186228  2.195523  2.170286  2.194387 
dram[4]:  2.164225  2.176498  2.144987  2.156791  2.157460  2.184665  2.173579  2.178359  2.145525  2.158115  2.176366  2.185812  2.194885  2.174074  2.176910  2.177593 
dram[5]:  2.153449  2.155578  2.164871  2.167043  2.170488  2.153825  2.183168  2.168032  2.179794  2.157554  2.164230  2.165944  2.190496  2.186903  2.194959  2.170667 
average row locality = 2159795/995373 = 2.169835
number of total memory accesses made:
dram[0]:         0         0         0         0         0         0         0         0         0         0         0         0         0         0         0         0 
dram[1]:         0         0         0         0         0         0         0         0         0         0         0         0         0         0         0         0 
dram[2]:         0         0         0         0         0         0         0         0         0         0         0         0         0         0         0         0 
dram[3]:         0         0         0         0         0         0         0         0         0         0         0         0         0         0         0         0 
dram[4]:         0         0         0         0         0         0         0         0         0         0         0         0         0         0         0         0 
dram[5]:         0         0         0         0         0         0         0         0         0         0         0         0         0         0         0         0 
total accesses: 0
min_bank_accesses = 0!
min_chip_accesses = 0!
number of total read accesses:
dram[0]:     10865     10838     10787     10706     10963     10858     10961     10814     11040     10924     10549     10419     10111     10055     10162     10074 
dram[1]:     10653     10961     10587     10837     10731     11075     10715     11019     10785     11136     10354     10570      9923     10208      9968     10223 
dram[2]:     10795     10881     10715     10762     10830     10979     10838     10937     10912     11021     10419     10398     10039     10104     10073     10123 
dram[3]:     10971     10663     10825     10572     10999     10765     11035     10728     11128     10825     10640     10246     10156      9890     10204      9967 
dram[4]:     10882     10787     10769     10720     10926     10877     10938     10828     11043     10931     10458     10358     10108     10050     10111     10061 
dram[5]:     10671     10911     10539     10815     10741     11019     10703     11040     10837     11108     10257     10515      9933     10202      9951     10236 
total reads: 1018636
bank skew: 11136/9890 = 1.13
chip skew: 170126/169478 = 1.00
number of total write accesses:
dram[0]:     12324     12263     12268     12214     12322     12292     12267     12221     12287     12216     11613     11526     11174     11141     11207     11146 
dram[1]:     12218     12275     12149     12187     12242     12299     12244     12262     12236     12276     11607     11537     11087     11117     11132     11124 
dram[2]:     12309     12317     12199     12231     12293     12319     12231     12260     12237     12274     11601     11556     11134     11189     11145     11181 
dram[3]:     12265     12223     12204     12177     12282     12271     12265     12259     12289     12258     11585     11489     11116     11097     11080     11143 
dram[4]:     12312     12273     12251     12211     12312     12287     12278     12243     12281     12245     11532     11487     11178     11132     11177     11164 
dram[5]:     12246     12255     12164     12199     12264     12266     12229     12249     12271     12254     11500     11478     11133     11105     11125     11106 
total reads: 1141159
bank skew: 12324/11080 = 1.11
chip skew: 190481/189844 = 1.00
average mf latency per bank:
dram[0]:        449       438       451       439       451       441       454       445       452       439       448       439       448       443       447       443
dram[1]:        443       441       437       437       442       441       447       446       440       438       449       443       442       440       440       441
dram[2]:        433       442       436       444       436       443       440       448       436       445       438       443       442       444       440       446
dram[3]:        444       439       438       432       443       438       446       441       438       433       445       442       440       435       443       436
dram[4]:        446       438       447       439       449       438       451       443       448       437       446       437       446       442       446       442
dram[5]:        437       442       434       437       439       443       442       446       431       438       442       445       436       437       437       441
maximum mf latency per bank:
dram[0]:       2047      1610      2107      1740      1959      1760      2066      2119      2006      1626      1956      1731      1941      1670      2040      1681
dram[1]:       1778      1693      1733      1671      1707      1687      1741      1703      1726      1647      1748      1864      1649      1786      1745      1791
dram[2]:       1688      1920      1635      1832      1630      1854      1996      1935      1589      1886      1725      1789      1704      1790      1675      1925
dram[3]:       1817      1766      1748      1850      1670      1716      1597      1663      1632      1680      1669      1667      1777      1716      1675      1628
dram[4]:       2021      1825      1881      1691      1871      1673      1924      2141      1985      1686      1845      1733      1764      1602      2014      1786
dram[5]:       1730      1785      1698      1692      1680      1725      1740      1701      1645      1650      1700      1753      1759      1863      1594      1818

Number of Memory Banks Accessed per Memory Operation per Warp (from 0):
0	0	0	0	0	0	0	0	0	0	0	0	0	0	0	0	0	0	0	0	0	0	0	0	0	0	0	0	0	0	0	0	0	0	0	0	0	0	0	0	0	0	0	0	0	0	0	0	0	0	0	0	0	0	0	0	0	0	0	0	0	0	0	0	0	0	0	0	0	0	0	0	0	0	0	0	0	0	0	0	0	0	0	0	0	0	0	0	0	0	0	0	0	0	0	0	
Average # of Memory Banks Accessed per Memory Operation per Warp=-nan

position of mrq chosen
0	0	0	0	0	0	0	0	0	0	0	0	0	0	0	0	

average position of mrq chosen = -nan
Memory Partition 0: 
Cache L2_bank_000:
MSHR contents

Cache L2_bank_001:
MSHR contents

In Dram Latency Queue (total = 0): 
DRAM[0]: 16 bks, busW=4 BL=8 CL=12, tRRD=2 tCCD=6, tRCD=12 tRAS=28 tRP=12 tRC=40
n_cmd=2841904 n_nop=1967481 n_act=166307 n_pre=166291 n_req=360607 n_rd=340252 n_write=201573 bw_util=0.3813
n_activity=2381011 dram_eff=0.4551
bk0: 21730a 2134772i bk1: 21676a 2135630i bk2: 21574a 2111866i bk3: 21412a 2115969i bk4: 21926a 2101387i bk5: 21716a 2105189i bk6: 21922a 2094589i bk7: 21628a 2095895i bk8: 22080a 2121868i bk9: 21848a 2126544i bk10: 21098a 2151383i bk11: 20838a 2159233i bk12: 20222a 2164529i bk13: 20110a 2163468i bk14: 20324a 2155961i bk15: 20148a 2159782i 
dram_util_bins: 0 0 0 0 0 0 0 0 0 0
dram_eff_bins: 0 0 0 0 0 0 0 0 0 0
mrqq: max=16 avg=6.35557
Memory Partition 1: 
Cache L2_bank_002:
MSHR contents

Cache L2_bank_003:
MSHR contents

In Dram Latency Queue (total = 0): 
DRAM[1]: 16 bks, busW=4 BL=8 CL=12, tRRD=2 tCCD=6, tRCD=12 tRAS=28 tRP=12 tRC=40
n_cmd=2841904 n_nop=1969560 n_act=165788 n_pre=165772 n_req=359737 n_rd=339490 n_write=201294 bw_util=0.3806
n_activity=2369505 dram_eff=0.4565
bk0: 21306a 2143371i bk1: 21922a 2125888i bk2: 21174a 2132357i bk3: 21674a 2115712i bk4: 21462a 2111549i bk5: 22150a 2090854i bk6: 21430a 2101593i bk7: 22038a 2083271i bk8: 21570a 2141568i bk9: 22272a 2123491i bk10: 20708a 2153019i bk11: 21140a 2145386i bk12: 19846a 2170603i bk13: 20416a 2162034i bk14: 19936a 2167955i bk15: 20446a 2154385i 
dram_util_bins: 0 0 0 0 0 0 0 0 0 0
dram_eff_bins: 0 0 0 0 0 0 0 0 0 0
mrqq: max=16 avg=6.39922
Memory Partition 2: 
Cache L2_bank_004:
MSHR contents

Cache L2_bank_005:
MSHR contents

In Dram Latency Queue (total = 0): 
DRAM[2]: 16 bks, busW=4 BL=8 CL=12, tRRD=2 tCCD=6, tRCD=12 tRAS=28 tRP=12 tRC=40
n_cmd=2841904 n_nop=1968471 n_act=166081 n_pre=166065 n_req=360302 n_rd=339652 n_write=201635 bw_util=0.3809
n_activity=2378170 dram_eff=0.4552
bk0: 21590a 2137128i bk1: 21762a 2131472i bk2: 21430a 2120929i bk3: 21524a 2114449i bk4: 21660a 2109448i bk5: 21958a 2103690i bk6: 21676a 2098200i bk7: 21874a 2093548i bk8: 21824a 2129524i bk9: 22042a 2122546i bk10: 20838a 2157001i bk11: 20796a 2159185i bk12: 20078a 2165495i bk13: 20208a 2166749i bk14: 20146a 2159112i bk15: 20246a 2154669i 
dram_util_bins: 0 0 0 0 0 0 0 0 0 0
dram_eff_bins: 0 0 0 0 0 0 0 0 0 0
mrqq: max=16 avg=6.36519
Memory Partition 3: 
Cache L2_bank_006:
MSHR contents
MSHR: tag=0x807f3f80, atomic=0 1 entries : 0x7f27d57d8b10 :  mf: uid=35397641, sid04:w30, part=3, addr=0x807f3fc0, load , size=64, unknown  status = IN_PARTITION_DRAM (2152956), 
MSHR: tag=0x807fff80, atomic=0 1 entries : 0x7f27d57d8de0 :  mf: uid=35397642, sid04:w31, part=3, addr=0x807fffc0, load , size=64, unknown  status = IN_PARTITION_DRAM (2152958), 

Cache L2_bank_007:
MSHR contents

In Dram Latency Queue (total = 0): 
DRAM[3]: 16 bks, busW=4 BL=8 CL=12, tRRD=2 tCCD=6, tRCD=12 tRAS=28 tRP=12 tRC=40
n_cmd=2841904 n_nop=1970225 n_act=165619 n_pre=165603 n_req=359617 n_rd=339227 n_write=201230 bw_util=0.3803
n_activity=2370205 dram_eff=0.456
bk0: 21942a 2130721i bk1: 21326a 2138650i bk2: 21650a 2118621i bk3: 21144a 2128489i bk4: 21998a 2098265i bk5: 21530a 2109090i bk6: 22070a 2089392i bk7: 21456a 2099250i bk8: 22256a 2124379i bk9: 21650a 2133343i bk10: 21279a 2141696i bk11: 20492a 2153292i bk12: 20312a 2164955i bk13: 19780a 2172588i bk14: 20408a 2154215i bk15: 19934a 2164370i 
dram_util_bins: 0 0 0 0 0 0 0 0 0 0
dram_eff_bins: 0 0 0 0 0 0 0 0 0 0
mrqq: max=16 avg=6.40055
Memory Partition 4: 
Cache L2_bank_008:
MSHR contents

Cache L2_bank_009:
MSHR contents

In Dram Latency Queue (total = 0): 
DRAM[4]: 16 bks, busW=4 BL=8 CL=12, tRRD=2 tCCD=6, tRCD=12 tRAS=28 tRP=12 tRC=40
n_cmd=2841904 n_nop=1968744 n_act=165997 n_pre=165981 n_req=360210 n_rd=339694 n_write=201488 bw_util=0.3809
n_activity=2375205 dram_eff=0.4557
bk0: 21764a 2135345i bk1: 21574a 2136166i bk2: 21538a 2117837i bk3: 21440a 2122221i bk4: 21852a 2104963i bk5: 21754a 2107575i bk6: 21876a 2095650i bk7: 21656a 2092434i bk8: 22086a 2125337i bk9: 21862a 2126143i bk10: 20916a 2157816i bk11: 20716a 2158015i bk12: 20216a 2162621i bk13: 20100a 2163285i bk14: 20222a 2155725i bk15: 20122a 2159308i 
dram_util_bins: 0 0 0 0 0 0 0 0 0 0
dram_eff_bins: 0 0 0 0 0 0 0 0 0 0
mrqq: max=16 avg=6.36828
Memory Partition 5: 
Cache L2_bank_010:
MSHR contents

Cache L2_bank_011:
MSHR contents
MSHR: tag=0x807e3f80, atomic=0 1 entries : 0x7f27d57d8600 :  mf: uid=35397639, sid04:w28, part=5, addr=0x807e3fc0, load , size=64, unknown  status = IN_PARTITION_DRAM (2152950), 
MSHR: tag=0x807fbf80, atomic=0 1 entries : 0x7f27d57d90b0 :  mf: uid=35397643, sid04:w31, part=5, addr=0x807fbfc0, load , size=64, unknown  status = IN_PARTITION_DRAM (2152952), 

In Dram Latency Queue (total = 0): 
DRAM[5]: 16 bks, busW=4 BL=8 CL=12, tRRD=2 tCCD=6, tRCD=12 tRAS=28 tRP=12 tRC=40
n_cmd=2841904 n_nop=1970682 n_act=165582 n_pre=165566 n_req=359322 n_rd=338956 n_write=201118 bw_util=0.3801
n_activity=2368051 dram_eff=0.4561
bk0: 21342a 2141423i bk1: 21822a 2127252i bk2: 21078a 2128895i bk3: 21630a 2117432i bk4: 21482a 2112171i bk5: 22038a 2098264i bk6: 21406a 2101289i bk7: 22080a 2087517i bk8: 21674a 2139702i bk9: 22216a 2122143i bk10: 20514a 2156671i bk11: 21030a 2150608i bk12: 19866a 2166957i bk13: 20404a 2164084i bk14: 19902a 2166887i bk15: 20472a 2154372i 
dram_util_bins: 0 0 0 0 0 0 0 0 0 0
dram_eff_bins: 0 0 0 0 0 0 0 0 0 0
mrqq: max=16 avg=6.39551

========= L2 cache stats =========
L2_cache_bank[0]: Access = 119957, Miss = 85438, Miss_rate = 0.712, Pending_hits = 16915, Reservation_fails = 461171
L2_cache_bank[1]: Access = 119832, Miss = 84688, Miss_rate = 0.707, Pending_hits = 17064, Reservation_fails = 444073
L2_cache_bank[2]: Access = 119986, Miss = 83716, Miss_rate = 0.698, Pending_hits = 17924, Reservation_fails = 432437
L2_cache_bank[3]: Access = 119870, Miss = 86029, Miss_rate = 0.718, Pending_hits = 15861, Reservation_fails = 462505
L2_cache_bank[4]: Access = 119941, Miss = 84621, Miss_rate = 0.706, Pending_hits = 17196, Reservation_fails = 438490
L2_cache_bank[5]: Access = 119866, Miss = 85205, Miss_rate = 0.711, Pending_hits = 17057, Reservation_fails = 456264
L2_cache_bank[6]: Access = 119941, Miss = 85958, Miss_rate = 0.717, Pending_hits = 15937, Reservation_fails = 457975
L2_cache_bank[7]: Access = 119907, Miss = 83656, Miss_rate = 0.698, Pending_hits = 18047, Reservation_fails = 426535
L2_cache_bank[8]: Access = 119842, Miss = 85235, Miss_rate = 0.711, Pending_hits = 16966, Reservation_fails = 457882
L2_cache_bank[9]: Access = 119849, Miss = 84612, Miss_rate = 0.706, Pending_hits = 17165, Reservation_fails = 444265
L2_cache_bank[10]: Access = 119887, Miss = 83632, Miss_rate = 0.698, Pending_hits = 18016, Reservation_fails = 429288
L2_cache_bank[11]: Access = 119877, Miss = 85846, Miss_rate = 0.716, Pending_hits = 15932, Reservation_fails = 459332
L2_total_cache_accesses = 1438755
L2_total_cache_misses = 1018636
L2_total_cache_miss_rate = 0.7080
L2_total_cache_pending_hits = 204080
L2_total_cache_reservation_fails = 5370217
L2_total_cache_breakdown:
	L2_cache_stats_breakdown[GLOBAL_ACC_R][HIT] = 110294
	L2_cache_stats_breakdown[GLOBAL_ACC_R][HIT_RESERVED] = 15237
	L2_cache_stats_breakdown[GLOBAL_ACC_R][MISS] = 133471
	L2_cache_stats_breakdown[GLOBAL_ACC_R][RESERVATION_FAIL] = 28103
	L2_cache_stats_breakdown[CONST_ACC_R][HIT] = 11
	L2_cache_stats_breakdown[CONST_ACC_R][HIT_RESERVED] = 3
	L2_cache_stats_breakdown[CONST_ACC_R][MISS] = 1
	L2_cache_stats_breakdown[CONST_ACC_R][RESERVATION_FAIL] = 93
	L2_cache_stats_breakdown[GLOBAL_ACC_W][HIT] = 105668
	L2_cache_stats_breakdown[GLOBAL_ACC_W][HIT_RESERVED] = 188822
	L2_cache_stats_breakdown[GLOBAL_ACC_W][MISS] = 885158
	L2_cache_stats_breakdown[GLOBAL_ACC_W][RESERVATION_FAIL] = 5341316
	L2_cache_stats_breakdown[INST_ACC_R][HIT] = 66
	L2_cache_stats_breakdown[INST_ACC_R][HIT_RESERVED] = 18
	L2_cache_stats_breakdown[INST_ACC_R][MISS] = 6
	L2_cache_stats_breakdown[INST_ACC_R][RESERVATION_FAIL] = 705
L2_cache_data_port_util = 0.022
L2_cache_fill_port_util = 0.158

icnt_total_pkts_mem_to_simt=2475153
icnt_total_pkts_simt_to_mem=2749475
LD_mem_lat_dist  0 0 0 0 0 0 0 0 0 0 0 0 0 0 0 0 0 0 0 0 0 0 0 0 0 0 0
ST_mem_lat_dist  0 0 0 0 0 0 0 0 0 0 0 0 0 0 0 0 0 0 0 0 0 0 0 0 0 0 0
----------------------------Interconnect-DETAILS--------------------------------
Class 0:
Packet latency average = 55.7864
	minimum = 6
	maximum = 871
Network latency average = 35.6953
	minimum = 6
	maximum = 569
Slowest packet = 2618895
Flit latency average = 30.3097
	minimum = 6
	maximum = 569
Slowest flit = 4580871
Fragmentation average = 0.327179
	minimum = 0
	maximum = 434
Injected packet rate average = 0.0535882
	minimum = 0.0460202 (at node 8)
	maximum = 0.0603737 (at node 15)
Accepted packet rate average = 0.0535882
	minimum = 0.0460202 (at node 8)
	maximum = 0.0603737 (at node 15)
Injected flit rate average = 0.133809
	minimum = 0.092218 (at node 8)
	maximum = 0.180516 (at node 20)
Accepted flit rate average= 0.133809
	minimum = 0.120864 (at node 16)
	maximum = 0.150232 (at node 4)
Injected packet length average = 2.49699
Accepted packet length average = 2.49699
Total in-flight flits = 0 (0 measured)
====== Overall Traffic Statistics ======
====== Traffic class 0 ======
Packet latency average = 76.2615 (4 samples)
	minimum = 6 (4 samples)
	maximum = 1147.75 (4 samples)
Network latency average = 44.8081 (4 samples)
	minimum = 6 (4 samples)
	maximum = 835.75 (4 samples)
Flit latency average = 44.7103 (4 samples)
	minimum = 6 (4 samples)
	maximum = 835.75 (4 samples)
Fragmentation average = 0.268008 (4 samples)
	minimum = 0 (4 samples)
	maximum = 465.25 (4 samples)
Injected packet rate average = 0.051084 (4 samples)
	minimum = 0.0443374 (4 samples)
	maximum = 0.0575547 (4 samples)
Accepted packet rate average = 0.051084 (4 samples)
	minimum = 0.0443374 (4 samples)
	maximum = 0.0575547 (4 samples)
Injected flit rate average = 0.1073 (4 samples)
	minimum = 0.0853701 (4 samples)
	maximum = 0.132801 (4 samples)
Accepted flit rate average = 0.1073 (4 samples)
	minimum = 0.0910752 (4 samples)
	maximum = 0.126321 (4 samples)
Injected packet size average = 2.10046 (4 samples)
Accepted packet size average = 2.10046 (4 samples)
Hops average = 1 (4 samples)
----------------------------END-of-Interconnect-DETAILS-------------------------


gpgpu_simulation_time = 0 days, 0 hrs, 25 min, 7 sec (1507 sec)
gpgpu_simulation_rate = 128027 (inst/sec)
gpgpu_simulation_rate = 1428 (cycle/sec)
GPGPU-Sim: synchronize waiting for inactive GPU simulation
GPGPU-Sim API: Stream Manager State
GPGPU-Sim: detected inactive GPU simulation thread
Naive transpose average time:     505942.875 ms
Optimized transpose average time: 236961.750 ms

Test PASSED
GPGPU-Sim: exit_simulation called
GPGPU-Sim: simulation thread signaled exit

Press ENTER to exit...
