

        *** GPGPU-Sim Simulator Version 3.2.2  [build 0] ***


GPGPU-Sim PTX: simulation mode 0 (can change with PTX_SIM_MODE_FUNC environment variable:
               1=functional simulation only, 0=detailed performance simulator)
GPGPU-Sim: Configuration options:

-network_mode                           1 # Interconnection network mode
-inter_config_file   config_fermi_islip.icnt # Interconnection network config file
-gpgpu_ptx_use_cuobjdump                    1 # Use cuobjdump to extract ptx and sass from binaries
-gpgpu_experimental_lib_support                    0 # Try to extract code from cuda libraries [Broken because of unknown cudaGetExportTable]
-gpgpu_ptx_convert_to_ptxplus                    0 # Convert SASS (native ISA) to ptxplus and run ptxplus
-gpgpu_ptx_force_max_capability                   20 # Force maximum compute capability
-gpgpu_ptx_inst_debug_to_file                    0 # Dump executed instructions' debug information to file
-gpgpu_ptx_inst_debug_file       inst_debug.txt # Executed instructions' debug output file
-gpgpu_ptx_inst_debug_thread_uid                    1 # Thread UID for executed instructions' debug output
-gpgpu_simd_model                       1 # 1 = post-dominator
-gpgpu_shader_core_pipeline              1536:32 # shader core pipeline config, i.e., {<nthread>:<warpsize>}
-gpgpu_tex_cache:l1  4:128:24,L:R:m:N:L,F:128:4,128:2 # per-shader L1 texture cache  (READ-ONLY) config  {<nsets>:<bsize>:<assoc>,<rep>:<wr>:<alloc>:<wr_alloc>,<mshr>:<N>:<merge>,<mq>:<rf>}
-gpgpu_const_cache:l1 64:64:2,L:R:f:N:L,A:2:32,4 # per-shader L1 constant memory cache  (READ-ONLY) config  {<nsets>:<bsize>:<assoc>,<rep>:<wr>:<alloc>:<wr_alloc>,<mshr>:<N>:<merge>,<mq>} 
-gpgpu_cache:il1     4:128:4,L:R:f:N:L,A:2:32,4 # shader L1 instruction cache config  {<nsets>:<bsize>:<assoc>,<rep>:<wr>:<alloc>:<wr_alloc>,<mshr>:<N>:<merge>,<mq>} 
-gpgpu_cache:dl1     64:128:8,L:L:m:N:H,A:32:8,8 # per-shader L1 data cache config  {<nsets>:<bsize>:<assoc>,<rep>:<wr>:<alloc>:<wr_alloc>,<mshr>:<N>:<merge>,<mq> | none}
-gpgpu_cache:dl1PrefL1                 none # per-shader L1 data cache config  {<nsets>:<bsize>:<assoc>,<rep>:<wr>:<alloc>:<wr_alloc>,<mshr>:<N>:<merge>,<mq> | none}
-gpgpu_cache:dl1PreShared                 none # per-shader L1 data cache config  {<nsets>:<bsize>:<assoc>,<rep>:<wr>:<alloc>:<wr_alloc>,<mshr>:<N>:<merge>,<mq> | none}
-gmem_skip_L1D                          0 # global memory access skip L1D cache (implements -Xptxas -dlcm=cg, default=no skip)
-gpgpu_perfect_mem                      0 # enable perfect memory mode (no cache miss)
-n_regfile_gating_group                    4 # group of lanes that should be read/written together)
-gpgpu_clock_gated_reg_file                    0 # enable clock gated reg file for power calculations
-gpgpu_clock_gated_lanes                    0 # enable clock gated lanes for power calculations
-gpgpu_shader_registers                32768 # Number of registers per shader core. Limits number of concurrent CTAs. (default 8192)
-gpgpu_shader_cta                       8 # Maximum number of concurrent CTAs in shader (default 8)
-gpgpu_num_cta_barriers                   16 # Maximum number of named barriers per CTA (default 16)
-gpgpu_n_clusters                      15 # number of processing clusters
-gpgpu_n_cores_per_cluster                    1 # number of simd cores per cluster
-gpgpu_n_cluster_ejection_buffer_size                    8 # number of packets in ejection buffer
-gpgpu_n_ldst_response_buffer_size                    2 # number of response packets in ld/st unit ejection buffer
-gpgpu_shmem_size                   16384 # Size of shared memory per shader core (default 16kB)
-gpgpu_shmem_size                   49152 # Size of shared memory per shader core (default 16kB)
-gpgpu_shmem_size_PrefL1                16384 # Size of shared memory per shader core (default 16kB)
-gpgpu_shmem_size_PrefShared                16384 # Size of shared memory per shader core (default 16kB)
-gpgpu_shmem_num_banks                   32 # Number of banks in the shared memory in each shader core (default 16)
-gpgpu_shmem_limited_broadcast                    0 # Limit shared memory to do one broadcast per cycle (default on)
-gpgpu_shmem_warp_parts                    1 # Number of portions a warp is divided into for shared memory bank conflict check 
-gpgpu_warpdistro_shader                   -1 # Specify which shader core to collect the warp size distribution from
-gpgpu_warp_issue_shader                    0 # Specify which shader core to collect the warp issue distribution from
-gpgpu_local_mem_map                    1 # Mapping from local memory space address to simulated GPU physical address space (default = enabled)
-gpgpu_num_reg_banks                   16 # Number of register banks (default = 8)
-gpgpu_reg_bank_use_warp_id                    0 # Use warp ID in mapping registers to banks (default = off)
-gpgpu_operand_collector_num_units_sp                    6 # number of collector units (default = 4)
-gpgpu_operand_collector_num_units_sfu                    8 # number of collector units (default = 4)
-gpgpu_operand_collector_num_units_mem                    2 # number of collector units (default = 2)
-gpgpu_operand_collector_num_units_gen                    0 # number of collector units (default = 0)
-gpgpu_operand_collector_num_in_ports_sp                    2 # number of collector unit in ports (default = 1)
-gpgpu_operand_collector_num_in_ports_sfu                    1 # number of collector unit in ports (default = 1)
-gpgpu_operand_collector_num_in_ports_mem                    1 # number of collector unit in ports (default = 1)
-gpgpu_operand_collector_num_in_ports_gen                    0 # number of collector unit in ports (default = 0)
-gpgpu_operand_collector_num_out_ports_sp                    2 # number of collector unit in ports (default = 1)
-gpgpu_operand_collector_num_out_ports_sfu                    1 # number of collector unit in ports (default = 1)
-gpgpu_operand_collector_num_out_ports_mem                    1 # number of collector unit in ports (default = 1)
-gpgpu_operand_collector_num_out_ports_gen                    0 # number of collector unit in ports (default = 0)
-gpgpu_coalesce_arch                   13 # Coalescing arch (default = 13, anything else is off for now)
-gpgpu_num_sched_per_core                    2 # Number of warp schedulers per core
-gpgpu_max_insn_issue_per_warp                    1 # Max number of instructions that can be issued per warp in one cycle by scheduler
-gpgpu_simt_core_sim_order                    1 # Select the simulation order of cores in a cluster (0=Fix, 1=Round-Robin)
-gpgpu_pipeline_widths        2,1,1,2,1,1,2 # Pipeline widths ID_OC_SP,ID_OC_SFU,ID_OC_MEM,OC_EX_SP,OC_EX_SFU,OC_EX_MEM,EX_WB
-gpgpu_num_sp_units                     2 # Number of SP units (default=1)
-gpgpu_num_sfu_units                    1 # Number of SF units (default=1)
-gpgpu_num_mem_units                    1 # Number if ldst units (default=1) WARNING: not hooked up to anything
-gpgpu_scheduler                      gto # Scheduler configuration: < lrr | gto | two_level_active > If two_level_active:<num_active_warps>:<inner_prioritization>:<outer_prioritization>For complete list of prioritization values see shader.h enum scheduler_prioritization_typeDefault: gto
-gpgpu_dram_scheduler                    1 # 0 = fifo, 1 = FR-FCFS (defaul)
-gpgpu_dram_partition_queues              8:8:8:8 # i2$:$2d:d2$:$2i
-l2_ideal                               0 # Use a ideal L2 cache that always hit
-gpgpu_cache:dl2     64:128:8,L:B:m:W:L,A:32:4,4:0,32 # unified banked L2 data cache config  {<nsets>:<bsize>:<assoc>,<rep>:<wr>:<alloc>:<wr_alloc>,<mshr>:<N>:<merge>,<mq>}
-gpgpu_cache:dl2_texture_only                    0 # L2 cache used for texture only
-gpgpu_n_mem                            6 # number of memory modules (e.g. memory controllers) in gpu
-gpgpu_n_sub_partition_per_mchannel                    2 # number of memory subpartition in each memory module
-gpgpu_n_mem_per_ctrlr                    2 # number of memory chips per memory controller
-gpgpu_memlatency_stat                   14 # track and display latency statistics 0x2 enables MC, 0x4 enables queue logs
-gpgpu_frfcfs_dram_sched_queue_size                   16 # 0 = unlimited (default); # entries per chip
-gpgpu_dram_return_queue_size                  116 # 0 = unlimited (default); # entries per chip
-gpgpu_dram_buswidth                    4 # default = 4 bytes (8 bytes per cycle at DDR)
-gpgpu_dram_burst_length                    8 # Burst length of each DRAM request (default = 4 data bus cycle)
-dram_data_command_freq_ratio                    4 # Frequency ratio between DRAM data bus and command bus (default = 2 times, i.e. DDR)
-gpgpu_dram_timing_opt nbk=16:CCD=2:RRD=6:RCD=12:RAS=28:RP=12:RC=40: CL=12:WL=4:CDLR=5:WR=12:nbkgrp=4:CCDL=3:RTPL=2 # DRAM timing parameters = {nbk:tCCD:tRRD:tRCD:tRAS:tRP:tRC:CL:WL:tCDLR:tWR:nbkgrp:tCCDL:tRTPL}
-rop_latency                          120 # ROP queue latency (default 85)
-dram_latency                         100 # DRAM latency (default 30)
-gpgpu_mem_addr_mapping dramid@8;00000000.00000000.00000000.00000000.0000RRRR.RRRRRRRR.BBBCCCCB.CCSSSSSS # mapping memory address to dram model {dramid@<start bit>;<memory address map>}
-gpgpu_mem_addr_test                    0 # run sweep test to check address mapping for aliased address
-gpgpu_mem_address_mask                    1 # 0 = old addressing mask, 1 = new addressing mask, 2 = new add. mask + flipped bank sel and chip sel bits
-gpuwattch_xml_file  gpuwattch_gtx480.xml # GPUWattch XML file
-power_simulation_enabled                    1 # Turn on power simulator (1=On, 0=Off)
-power_per_cycle_dump                    0 # Dump detailed power output each cycle
-power_trace_enabled                    0 # produce a file for the power trace (1=On, 0=Off)
-power_trace_zlevel                     6 # Compression level of the power trace output log (0=no comp, 9=highest)
-steady_power_levels_enabled                    0 # produce a file for the steady power levels (1=On, 0=Off)
-steady_state_definition                  8:4 # allowed deviation:number of samples
-gpgpu_max_cycle                        0 # terminates gpu simulation early (0 = no limit)
-gpgpu_max_insn                         0 # terminates gpu simulation early (0 = no limit)
-gpgpu_max_cta                          0 # terminates gpu simulation early (0 = no limit)
-gpgpu_runtime_stat                   500 # display runtime statistics such as dram utilization {<freq>:<flag>}
-liveness_message_freq                    1 # Minimum number of seconds between simulation liveness messages (0 = always print)
-gpgpu_flush_l1_cache                    0 # Flush L1 cache at the end of each kernel call
-gpgpu_flush_l2_cache                    0 # Flush L2 cache at the end of each kernel call
-gpgpu_deadlock_detect                    1 # Stop the simulation at deadlock (1=on (default), 0=off)
-gpgpu_ptx_instruction_classification                    0 # if enabled will classify ptx instruction types per kernel (Max 255 kernels now)
-gpgpu_ptx_sim_mode                     0 # Select between Performance (default) or Functional simulation (1)
-gpgpu_clock_domains 700.0:700.0:700.0:924.0 # Clock Domain Frequencies in MhZ {<Core Clock>:<ICNT Clock>:<L2 Clock>:<DRAM Clock>}
-gpgpu_max_concurrent_kernel                    8 # maximum kernels that can run concurrently on GPU
-gpgpu_cflog_interval                    0 # Interval between each snapshot in control flow logger
-visualizer_enabled                     0 # Turn on visualizer output (1=On, 0=Off)
-visualizer_outputfile                 NULL # Specifies the output log file for visualizer
-visualizer_zlevel                      6 # Compression level of the visualizer output log (0=no comp, 9=highest)
-trace_enabled                          0 # Turn on traces
-trace_components                    none # comma seperated list of traces to enable. Complete list found in trace_streams.tup. Default none
-trace_sampling_core                    0 # The core which is printed using CORE_DPRINTF. Default 0
-trace_sampling_memory_partition                   -1 # The memory partition which is printed using MEMPART_DPRINTF. Default -1 (i.e. all)
-enable_ptx_file_line_stats                    1 # Turn on PTX source line statistic profiling. (1 = On)
-ptx_line_stats_filename gpgpu_inst_stats.txt # Output file for PTX source line statistics.
-save_embedded_ptx                      0 # saves ptx files embedded in binary as <n>.ptx
-keep                                   0 # keep intermediate files created by GPGPU-Sim when interfacing with external programs
-gpgpu_ptx_save_converted_ptxplus                    0 # Saved converted ptxplus to a file
-ptx_opcode_latency_int         4,13,4,5,145 # Opcode latencies for integers <ADD,MAX,MUL,MAD,DIV>Default 1,1,19,25,145
-ptx_opcode_latency_fp          4,13,4,5,39 # Opcode latencies for single precision floating points <ADD,MAX,MUL,MAD,DIV>Default 1,1,1,1,30
-ptx_opcode_latency_dp         8,19,8,8,330 # Opcode latencies for double precision floating points <ADD,MAX,MUL,MAD,DIV>Default 8,8,8,8,335
-ptx_opcode_initiation_int            1,2,2,1,8 # Opcode initiation intervals for integers <ADD,MAX,MUL,MAD,DIV>Default 1,1,4,4,32
-ptx_opcode_initiation_fp            1,2,1,1,4 # Opcode initiation intervals for single precision floating points <ADD,MAX,MUL,MAD,DIV>Default 1,1,1,1,5
-ptx_opcode_initiation_dp         8,16,8,8,130 # Opcode initiation intervals for double precision floating points <ADD,MAX,MUL,MAD,DIV>Default 8,8,8,8,130
DRAM Timing Options:
nbk                                    16 # number of banks
CCD                                     2 # column to column delay
RRD                                     6 # minimal delay between activation of rows in different banks
RCD                                    12 # row to column delay
RAS                                    28 # time needed to activate row
RP                                     12 # time needed to precharge (deactivate) row
RC                                     40 # row cycle time
CDLR                                    5 # switching from write to read (changes tWTR)
WR                                     12 # last data-in to row precharge
CL                                     12 # CAS latency
WL                                      4 # Write latency
nbkgrp                                  4 # number of bank groups
CCDL                                    3 # column to column delay between accesses to different bank groups
RTPL                                    2 # read to precharge delay between accesses to different bank groups
Total number of memory sub partition = 12
addr_dec_mask[CHIP]  = 0000000000000000 	high:64 low:0
addr_dec_mask[BK]    = 000000000000e100 	high:16 low:8
addr_dec_mask[ROW]   = 000000000fff0000 	high:28 low:16
addr_dec_mask[COL]   = 0000000000001eff 	high:13 low:0
addr_dec_mask[BURST] = 000000000000003f 	high:6 low:0
sub_partition_id_mask = 0000000000000100
GPGPU-Sim uArch: clock freqs: 700000000.000000:700000000.000000:700000000.000000:924000000.000000
GPGPU-Sim uArch: clock periods: 0.00000000142857142857:0.00000000142857142857:0.00000000142857142857:0.00000000108225108225
*** Initializing Memory Statistics ***
GPGPU-Sim uArch: interconnect node map (shaderID+MemID to icntID)
GPGPU-Sim uArch: Memory nodes ID start from index: 15
GPGPU-Sim uArch:    0   1   2   3   4
GPGPU-Sim uArch:    5   6   7   8   9
GPGPU-Sim uArch:   10  11  12  13  14
GPGPU-Sim uArch:   15  16  17  18  19
GPGPU-Sim uArch:   20  21  22  23  24
GPGPU-Sim uArch:   25  26
GPGPU-Sim uArch: interconnect node reverse map (icntID to shaderID+MemID)
GPGPU-Sim uArch: Memory nodes start from ID: 15
GPGPU-Sim uArch:    0   1   2   3   4
GPGPU-Sim uArch:    5   6   7   8   9
GPGPU-Sim uArch:   10  11  12  13  14
GPGPU-Sim uArch:   15  16  17  18  19
GPGPU-Sim uArch:   20  21  22  23  24
GPGPU-Sim uArch:   25  26
36bb1eeaa5c1ff7ca0ddea1af00eaab8  /home/scratch/adwait/applications/benchmarks/CUDA/NN/gpgpu_ptx_sim__NN
GPGPU-Sim uArch: performance model initialization complete.
GPGPU-Sim PTX: __cudaRegisterFatBinary, fat_cubin_handle = 1, filename=NN.cu
self exe links to: /home/scratch/adwait/applications/benchmarks/CUDA/NN/gpgpu_ptx_sim__NN
Running md5sum using "md5sum /home/scratch/adwait/applications/benchmarks/CUDA/NN/gpgpu_ptx_sim__NN "
Running cuobjdump using "$CUDA_INSTALL_PATH/bin/cuobjdump -ptx -elf -sass /home/scratch/adwait/applications/benchmarks/CUDA/NN/gpgpu_ptx_sim__NN > _cuobjdump_complete_output_KIOLVt"
Parsing file _cuobjdump_complete_output_KIOLVt
######### cuobjdump parser ########
## Adding new section ELF
Adding arch: sm_20
Adding identifier: NN.cu
## Adding new section PTX
Adding ptx filename: _cuobjdump_1.ptx
Adding arch: sm_20
Adding identifier: NN.cu
Done parsing!!!
GPGPU-Sim PTX: __cudaRegisterFunction _Z18executeFourthLayerPfS_S_ : hostFun 0x0x402a51, fat_cubin_handle = 1
GPGPU-Sim PTX: allocating constant region for "kernelTemplate" from 0x100 to 0x164 (global memory space) 1
GPGPU-Sim PTX: instruction assembly for function '_Z17executeFirstLayerPfS_S_'...   done.
GPGPU-Sim PTX: finding reconvergence points for '_Z17executeFirstLayerPfS_S_'...
GPGPU-Sim PTX: Finding dominators for '_Z17executeFirstLayerPfS_S_'...
GPGPU-Sim PTX: Finding immediate dominators for '_Z17executeFirstLayerPfS_S_'...
GPGPU-Sim PTX: Finding postdominators for '_Z17executeFirstLayerPfS_S_'...
GPGPU-Sim PTX: Finding immediate postdominators for '_Z17executeFirstLayerPfS_S_'...
GPGPU-Sim PTX: pre-decoding instructions for '_Z17executeFirstLayerPfS_S_'...
GPGPU-Sim PTX: reconvergence points for _Z17executeFirstLayerPfS_S_...
GPGPU-Sim PTX:  1 (potential) branch divergence @  PC=0x100 (_1.ptx:100) @%p1 bra $Lt_0_4098;
GPGPU-Sim PTX:    immediate post dominator      @  PC=0x108 (_1.ptx:102) cvt.f64.f32 %fd1, %f1;
GPGPU-Sim PTX:  2 (potential) branch divergence @  PC=0x148 (_1.ptx:110) @!%p2 bra $Lt_0_4866;
GPGPU-Sim PTX:    immediate post dominator      @  PC=0x2a8 (_1.ptx:162) cvt.f64.f32 %fd5, %f29;
GPGPU-Sim PTX:  3 (potential) branch divergence @  PC=0x230 (_1.ptx:142) bra.uni $Lt_0_4610;
GPGPU-Sim PTX:    immediate post dominator      @  PC=0x2a8 (_1.ptx:162) cvt.f64.f32 %fd5, %f29;
GPGPU-Sim PTX: ... end of reconvergence points for _Z17executeFirstLayerPfS_S_
GPGPU-Sim PTX: ... done pre-decoding instructions for '_Z17executeFirstLayerPfS_S_'.
GPGPU-Sim PTX: allocating constant region for "kernelTemplate2" from 0x180 to 0x1e4 (global memory space) 2
GPGPU-Sim PTX: instruction assembly for function '_Z18executeSecondLayerPfS_S_'...   done.
GPGPU-Sim PTX: finding reconvergence points for '_Z18executeSecondLayerPfS_S_'...
GPGPU-Sim PTX: Finding dominators for '_Z18executeSecondLayerPfS_S_'...
GPGPU-Sim PTX: Finding immediate dominators for '_Z18executeSecondLayerPfS_S_'...
GPGPU-Sim PTX: Finding postdominators for '_Z18executeSecondLayerPfS_S_'...
GPGPU-Sim PTX: Finding immediate postdominators for '_Z18executeSecondLayerPfS_S_'...
GPGPU-Sim PTX: pre-decoding instructions for '_Z18executeSecondLayerPfS_S_'...
GPGPU-Sim PTX: reconvergence points for _Z18executeSecondLayerPfS_S_...
GPGPU-Sim PTX:  1 (potential) branch divergence @  PC=0x4a0 (_1.ptx:251) @%p1 bra $Lt_1_5634;
GPGPU-Sim PTX:    immediate post dominator      @  PC=0x4a8 (_1.ptx:253) cvt.f64.f32 %fd1, %f1;
GPGPU-Sim PTX:  2 (potential) branch divergence @  PC=0x4e8 (_1.ptx:261) @!%p2 bra $Lt_1_6402;
GPGPU-Sim PTX:    immediate post dominator      @  PC=0x648 (_1.ptx:313) cvt.f64.f32 %fd5, %f44;
GPGPU-Sim PTX:  3 (potential) branch divergence @  PC=0x5d0 (_1.ptx:293) bra.uni $Lt_1_6146;
GPGPU-Sim PTX:    immediate post dominator      @  PC=0x648 (_1.ptx:313) cvt.f64.f32 %fd5, %f44;
GPGPU-Sim PTX: ... end of reconvergence points for _Z18executeSecondLayerPfS_S_
GPGPU-Sim PTX: ... done pre-decoding instructions for '_Z18executeSecondLayerPfS_S_'.
GPGPU-Sim PTX: instruction assembly for function '_Z17executeThirdLayerPfS_S_'...   done.
GPGPU-Sim PTX: finding reconvergence points for '_Z17executeThirdLayerPfS_S_'...
GPGPU-Sim PTX: Finding dominators for '_Z17executeThirdLayerPfS_S_'...
GPGPU-Sim PTX: Finding immediate dominators for '_Z17executeThirdLayerPfS_S_'...
GPGPU-Sim PTX: Finding postdominators for '_Z17executeThirdLayerPfS_S_'...
GPGPU-Sim PTX: Finding immediate postdominators for '_Z17executeThirdLayerPfS_S_'...
GPGPU-Sim PTX: pre-decoding instructions for '_Z17executeThirdLayerPfS_S_'...
GPGPU-Sim PTX: reconvergence points for _Z17executeThirdLayerPfS_S_...
GPGPU-Sim PTX:  1 (potential) branch divergence @  PC=0x788 (_1.ptx:373) @%p1 bra $Lt_2_4098;
GPGPU-Sim PTX:    immediate post dominator      @  PC=0x790 (_1.ptx:375) cvt.f64.f32 %fd1, %f1;
GPGPU-Sim PTX:  2 (potential) branch divergence @  PC=0x7d0 (_1.ptx:383) @!%p2 bra $Lt_2_4866;
GPGPU-Sim PTX:    immediate post dominator      @  PC=0x930 (_1.ptx:435) cvt.f64.f32 %fd5, %f29;
GPGPU-Sim PTX:  3 (potential) branch divergence @  PC=0x8b8 (_1.ptx:415) bra.uni $Lt_2_4610;
GPGPU-Sim PTX:    immediate post dominator      @  PC=0x930 (_1.ptx:435) cvt.f64.f32 %fd5, %f29;
GPGPU-Sim PTX: ... end of reconvergence points for _Z17executeThirdLayerPfS_S_
GPGPU-Sim PTX: ... done pre-decoding instructions for '_Z17executeThirdLayerPfS_S_'.
GPGPU-Sim PTX: instruction assembly for function '_Z18executeFourthLayerPfS_S_'...   done.
GPGPU-Sim PTX: finding reconvergence points for '_Z18executeFourthLayerPfS_S_'...
GPGPU-Sim PTX: Finding dominators for '_Z18executeFourthLayerPfS_S_'...
GPGPU-Sim PTX: Finding immediate dominators for '_Z18executeFourthLayerPfS_S_'...
GPGPU-Sim PTX: Finding postdominators for '_Z18executeFourthLayerPfS_S_'...
GPGPU-Sim PTX: Finding immediate postdominators for '_Z18executeFourthLayerPfS_S_'...
GPGPU-Sim PTX: pre-decoding instructions for '_Z18executeFourthLayerPfS_S_'...
GPGPU-Sim PTX: reconvergence points for _Z18executeFourthLayerPfS_S_...
GPGPU-Sim PTX:  1 (potential) branch divergence @  PC=0xa50 (_1.ptx:491) @%p1 bra $Lt_3_4098;
GPGPU-Sim PTX:    immediate post dominator      @  PC=0xa58 (_1.ptx:493) cvt.f64.f32 %fd1, %f1;
GPGPU-Sim PTX:  2 (potential) branch divergence @  PC=0xa98 (_1.ptx:501) @!%p2 bra $Lt_3_4866;
GPGPU-Sim PTX:    immediate post dominator      @  PC=0xbf8 (_1.ptx:553) cvt.f64.f32 %fd5, %f29;
GPGPU-Sim PTX:  3 (potential) branch divergence @  PC=0xb80 (_1.ptx:533) bra.uni $Lt_3_4610;
GPGPU-Sim PTX:    immediate post dominator      @  PC=0xbf8 (_1.ptx:553) cvt.f64.f32 %fd5, %f29;
GPGPU-Sim PTX: ... end of reconvergence points for _Z18executeFourthLayerPfS_S_
GPGPU-Sim PTX: ... done pre-decoding instructions for '_Z18executeFourthLayerPfS_S_'.
GPGPU-Sim PTX: finished parsing EMBEDDED .ptx file _1.ptx
Adding _cuobjdump_1.ptx with cubin handle 1
GPGPU-Sim PTX: extracting embedded .ptx to temporary file "_ptx_VIjQTf"
Running: cat _ptx_VIjQTf | sed 's/.version 1.5/.version 1.4/' | sed 's/, texmode_independent//' | sed 's/\(\.extern \.const\[1\] .b8 \w\+\)\[\]/\1\[1\]/' | sed 's/const\[.\]/const\[0\]/g' > _ptx2_oOqld2
GPGPU-Sim PTX: generating ptxinfo using "$CUDA_INSTALL_PATH/bin/ptxas --gpu-name=sm_20 -v _ptx2_oOqld2 --output-file  /dev/null 2> _ptx_VIjQTfinfo"
GPGPU-Sim PTX: Kernel '_Z18executeFourthLayerPfS_S_' : regs=12, lmem=0, smem=0, cmem=288
GPGPU-Sim PTX: Kernel '_Z17executeThirdLayerPfS_S_' : regs=12, lmem=0, smem=0, cmem=288
GPGPU-Sim PTX: Kernel '_Z18executeSecondLayerPfS_S_' : regs=22, lmem=0, smem=0, cmem=288
GPGPU-Sim PTX: Kernel '_Z17executeFirstLayerPfS_S_' : regs=17, lmem=0, smem=0, cmem=288
GPGPU-Sim PTX: removing ptxinfo using "rm -f _ptx_VIjQTf _ptx2_oOqld2 _ptx_VIjQTfinfo"
GPGPU-Sim PTX: loading globals with explicit initializers... 
GPGPU-Sim PTX: finished loading globals (0 bytes total).
GPGPU-Sim PTX: loading constants with explicit initializers...  done.
GPGPU-Sim PTX: __cudaRegisterFunction _Z17executeThirdLayerPfS_S_ : hostFun 0x0x40298f, fat_cubin_handle = 1
GPGPU-Sim PTX: __cudaRegisterFunction _Z18executeSecondLayerPfS_S_ : hostFun 0x0x4028cd, fat_cubin_handle = 1
GPGPU-Sim PTX: __cudaRegisterFunction _Z17executeFirstLayerPfS_S_ : hostFun 0x0x40280b, fat_cubin_handle = 1
GPGPU-Sim PTX: __cudaRegisterVar: hostVar = 0x60a180; deviceAddress = kernelTemplate; deviceName = kernelTemplate
GPGPU-Sim PTX: __cudaRegisterVar: Registering const memory space of 100 bytes
GPGPU-Sim PTX registering constant kernelTemplate (100 bytes) to name mapping
GPGPU-Sim PTX: __cudaRegisterVar: hostVar = 0x60a200; deviceAddress = kernelTemplate2; deviceName = kernelTemplate2
GPGPU-Sim PTX: __cudaRegisterVar: Registering const memory space of 100 bytes
GPGPU-Sim PTX registering constant kernelTemplate2 (100 bytes) to name mapping
magic number = 2051
number of items = 10000
number of rows = 28
number of rows = 28
NUM=28

GPGPU-Sim PTX: cudaLaunch for 0x0x40280b (mode=performance simulation) on stream 0
GPGPU-Sim PTX: pushing kernel '_Z17executeFirstLayerPfS_S_' to stream 0, gridDim= (6,28,1) blockDim = (13,13,1) 
kernel '_Z17executeFirstLayerPfS_S_' transfer to GPU hardware scheduler
GPGPU-Sim uArch: Shader 1 bind to kernel 1 '_Z17executeFirstLayerPfS_S_'
GPGPU-Sim uArch: CTA/core = 8, limited by: threads regs cta_limit
GPGPU-Sim uArch: core:  1, cta: 0 initialized @(1,0)
GPGPU-Sim uArch: Shader 2 bind to kernel 1 '_Z17executeFirstLayerPfS_S_'
GPGPU-Sim uArch: core:  2, cta: 0 initialized @(1,0)
GPGPU-Sim uArch: Shader 3 bind to kernel 1 '_Z17executeFirstLayerPfS_S_'
GPGPU-Sim uArch: core:  3, cta: 0 initialized @(1,0)
GPGPU-Sim uArch: Shader 4 bind to kernel 1 '_Z17executeFirstLayerPfS_S_'
GPGPU-Sim uArch: core:  4, cta: 0 initialized @(1,0)
GPGPU-Sim uArch: Shader 5 bind to kernel 1 '_Z17executeFirstLayerPfS_S_'
GPGPU-Sim uArch: core:  5, cta: 0 initialized @(1,0)
GPGPU-Sim uArch: Shader 6 bind to kernel 1 '_Z17executeFirstLayerPfS_S_'
GPGPU-Sim uArch: core:  6, cta: 0 initialized @(1,0)
GPGPU-Sim uArch: Shader 7 bind to kernel 1 '_Z17executeFirstLayerPfS_S_'
GPGPU-Sim uArch: core:  7, cta: 0 initialized @(1,0)
GPGPU-Sim uArch: Shader 8 bind to kernel 1 '_Z17executeFirstLayerPfS_S_'
GPGPU-Sim uArch: core:  8, cta: 0 initialized @(1,0)
GPGPU-Sim uArch: Shader 9 bind to kernel 1 '_Z17executeFirstLayerPfS_S_'
GPGPU-Sim uArch: core:  9, cta: 0 initialized @(1,0)
GPGPU-Sim uArch: Shader 10 bind to kernel 1 '_Z17executeFirstLayerPfS_S_'
GPGPU-Sim uArch: core: 10, cta: 0 initialized @(1,0)
GPGPU-Sim uArch: Shader 11 bind to kernel 1 '_Z17executeFirstLayerPfS_S_'
GPGPU-Sim uArch: core: 11, cta: 0 initialized @(1,0)
GPGPU-Sim uArch: Shader 12 bind to kernel 1 '_Z17executeFirstLayerPfS_S_'
GPGPU-Sim uArch: core: 12, cta: 0 initialized @(1,0)
GPGPU-Sim uArch: Shader 13 bind to kernel 1 '_Z17executeFirstLayerPfS_S_'
GPGPU-Sim uArch: core: 13, cta: 0 initialized @(1,0)
GPGPU-Sim uArch: Shader 14 bind to kernel 1 '_Z17executeFirstLayerPfS_S_'
GPGPU-Sim uArch: core: 14, cta: 0 initialized @(1,0)
GPGPU-Sim uArch: Shader 0 bind to kernel 1 '_Z17executeFirstLayerPfS_S_'
GPGPU-Sim uArch: core:  0, cta: 0 initialized @(1,0)
GPGPU-Sim uArch: core:  1, cta: 1 initialized @(2,0)
GPGPU-Sim uArch: core:  2, cta: 1 initialized @(2,0)
GPGPU-Sim uArch: core:  3, cta: 1 initialized @(2,0)
GPGPU-Sim uArch: core:  4, cta: 1 initialized @(2,0)
GPGPU-Sim uArch: core:  5, cta: 1 initialized @(2,0)
GPGPU-Sim uArch: core:  6, cta: 1 initialized @(2,0)
GPGPU-Sim uArch: core:  7, cta: 1 initialized @(2,0)
GPGPU-Sim uArch: core:  8, cta: 1 initialized @(2,0)
GPGPU-Sim uArch: core:  9, cta: 1 initialized @(2,0)
GPGPU-Sim uArch: core: 10, cta: 1 initialized @(2,0)
GPGPU-Sim uArch: core: 11, cta: 1 initialized @(2,0)
GPGPU-Sim uArch: core: 12, cta: 1 initialized @(2,0)
GPGPU-Sim uArch: core: 13, cta: 1 initialized @(2,0)
GPGPU-Sim uArch: core: 14, cta: 1 initialized @(2,0)
GPGPU-Sim uArch: core:  0, cta: 1 initialized @(2,0)
GPGPU-Sim uArch: core:  1, cta: 2 initialized @(3,0)
GPGPU-Sim uArch: core:  2, cta: 2 initialized @(3,0)
GPGPU-Sim uArch: core:  3, cta: 2 initialized @(3,0)
GPGPU-Sim uArch: core:  4, cta: 2 initialized @(3,0)
GPGPU-Sim uArch: core:  5, cta: 2 initialized @(3,0)
GPGPU-Sim uArch: core:  6, cta: 2 initialized @(3,0)
GPGPU-Sim uArch: core:  7, cta: 2 initialized @(3,0)
GPGPU-Sim uArch: core:  8, cta: 2 initialized @(3,0)
GPGPU-Sim uArch: core:  9, cta: 2 initialized @(3,0)
GPGPU-Sim uArch: core: 10, cta: 2 initialized @(3,0)
GPGPU-Sim uArch: core: 11, cta: 2 initialized @(3,0)
GPGPU-Sim uArch: core: 12, cta: 2 initialized @(3,0)
GPGPU-Sim uArch: core: 13, cta: 2 initialized @(3,0)
GPGPU-Sim uArch: core: 14, cta: 2 initialized @(3,0)
GPGPU-Sim uArch: core:  0, cta: 2 initialized @(3,0)
GPGPU-Sim uArch: core:  1, cta: 3 initialized @(4,0)
GPGPU-Sim uArch: core:  2, cta: 3 initialized @(4,0)
GPGPU-Sim uArch: core:  3, cta: 3 initialized @(4,0)
GPGPU-Sim uArch: core:  4, cta: 3 initialized @(4,0)
GPGPU-Sim uArch: core:  5, cta: 3 initialized @(4,0)
GPGPU-Sim uArch: core:  6, cta: 3 initialized @(4,0)
GPGPU-Sim uArch: core:  7, cta: 3 initialized @(4,0)
GPGPU-Sim uArch: core:  8, cta: 3 initialized @(4,0)
GPGPU-Sim uArch: core:  9, cta: 3 initialized @(4,0)
GPGPU-Sim uArch: core: 10, cta: 3 initialized @(4,0)
GPGPU-Sim uArch: core: 11, cta: 3 initialized @(4,0)
GPGPU-Sim uArch: core: 12, cta: 3 initialized @(4,0)
GPGPU-Sim uArch: core: 13, cta: 3 initialized @(4,0)
GPGPU-Sim uArch: core: 14, cta: 3 initialized @(4,0)
GPGPU-Sim uArch: core:  0, cta: 3 initialized @(4,0)
GPGPU-Sim uArch: core:  1, cta: 4 initialized @(5,0)
GPGPU-Sim uArch: core:  2, cta: 4 initialized @(5,0)
GPGPU-Sim uArch: core:  3, cta: 4 initialized @(5,0)
GPGPU-Sim uArch: core:  4, cta: 4 initialized @(5,0)
GPGPU-Sim uArch: core:  5, cta: 4 initialized @(5,0)
GPGPU-Sim uArch: core:  6, cta: 4 initialized @(5,0)
GPGPU-Sim uArch: core:  7, cta: 4 initialized @(5,0)
GPGPU-Sim uArch: core:  8, cta: 4 initialized @(5,0)
GPGPU-Sim uArch: core:  9, cta: 4 initialized @(5,0)
GPGPU-Sim uArch: core: 10, cta: 4 initialized @(5,0)
GPGPU-Sim uArch: core: 11, cta: 4 initialized @(5,0)
GPGPU-Sim uArch: core: 12, cta: 4 initialized @(5,0)
GPGPU-Sim uArch: core: 13, cta: 4 initialized @(5,0)
GPGPU-Sim uArch: core: 14, cta: 4 initialized @(5,0)
GPGPU-Sim uArch: core:  0, cta: 4 initialized @(5,0)
GPGPU-Sim uArch: core:  1, cta: 5 initialized @(6,0)
GPGPU-Sim uArch: core:  2, cta: 5 initialized @(6,0)
GPGPU-Sim uArch: core:  3, cta: 5 initialized @(6,0)
GPGPU-Sim uArch: core:  4, cta: 5 initialized @(6,0)
GPGPU-Sim uArch: core:  5, cta: 5 initialized @(6,0)
GPGPU-Sim uArch: core:  6, cta: 5 initialized @(6,0)
GPGPU-Sim uArch: core:  7, cta: 5 initialized @(6,0)
GPGPU-Sim uArch: core:  8, cta: 5 initialized @(6,0)
GPGPU-Sim uArch: core:  9, cta: 5 initialized @(6,0)
GPGPU-Sim uArch: core: 10, cta: 5 initialized @(6,0)
GPGPU-Sim uArch: core: 11, cta: 5 initialized @(6,0)
GPGPU-Sim uArch: core: 12, cta: 5 initialized @(6,0)
GPGPU-Sim uArch: core: 13, cta: 5 initialized @(6,0)
GPGPU-Sim uArch: core: 14, cta: 5 initialized @(6,0)
GPGPU-Sim uArch: core:  0, cta: 5 initialized @(6,0)
GPGPU-Sim uArch: core:  1, cta: 6 initialized @(7,0)
GPGPU-Sim uArch: core:  2, cta: 6 initialized @(7,0)
GPGPU-Sim uArch: core:  3, cta: 6 initialized @(7,0)
GPGPU-Sim uArch: core:  4, cta: 6 initialized @(7,0)
GPGPU-Sim uArch: core:  5, cta: 6 initialized @(7,0)
GPGPU-Sim uArch: core:  6, cta: 6 initialized @(7,0)
GPGPU-Sim uArch: core:  7, cta: 6 initialized @(7,0)
GPGPU-Sim uArch: core:  8, cta: 6 initialized @(7,0)
GPGPU-Sim uArch: core:  9, cta: 6 initialized @(7,0)
GPGPU-Sim uArch: core: 10, cta: 6 initialized @(7,0)
GPGPU-Sim uArch: core: 11, cta: 6 initialized @(7,0)
GPGPU-Sim uArch: core: 12, cta: 6 initialized @(7,0)
GPGPU-Sim uArch: core: 13, cta: 6 initialized @(7,0)
GPGPU-Sim uArch: core: 14, cta: 6 initialized @(7,0)
GPGPU-Sim uArch: core:  0, cta: 6 initialized @(7,0)
GPGPU-Sim uArch: core:  1, cta: 7 initialized @(8,0)
GPGPU-Sim uArch: core:  2, cta: 7 initialized @(8,0)
GPGPU-Sim uArch: core:  3, cta: 7 initialized @(8,0)
GPGPU-Sim uArch: core:  4, cta: 7 initialized @(8,0)
GPGPU-Sim uArch: core:  5, cta: 7 initialized @(8,0)
GPGPU-Sim uArch: core:  6, cta: 7 initialized @(8,0)
GPGPU-Sim uArch: core:  7, cta: 7 initialized @(8,0)
GPGPU-Sim uArch: core:  8, cta: 7 initialized @(8,0)
GPGPU-Sim uArch: core:  9, cta: 7 initialized @(8,0)
GPGPU-Sim uArch: core: 10, cta: 7 initialized @(8,0)
GPGPU-Sim uArch: core: 11, cta: 7 initialized @(8,0)
GPGPU-Sim uArch: core: 12, cta: 7 initialized @(8,0)
GPGPU-Sim uArch: core: 13, cta: 7 initialized @(8,0)
GPGPU-Sim uArch: core: 14, cta: 7 initialized @(8,0)
GPGPU-Sim uArch: core:  0, cta: 7 initialized @(8,0)
GPGPU-Sim uArch: cycles simulated: 500  inst.: 70695 (ipc=141.4) sim_rate=70695 (inst/sec) elapsed = 0:0:00:01 / Wed Apr 17 12:22:53 2019
GPGPU-Sim PTX: 100000 instructions simulated : ctaid=(2,0,0) tid=(0,12,0)
GPGPU-Sim PTX: 200000 instructions simulated : ctaid=(5,7,0) tid=(8,5,0)
GPGPU-Sim PTX: 300000 instructions simulated : ctaid=(3,13,0) tid=(9,12,0)
GPGPU-Sim PTX: 400000 instructions simulated : ctaid=(0,0,0) tid=(9,5,0)
GPGPU-Sim uArch: cycles simulated: 1500  inst.: 491791 (ipc=327.9) sim_rate=245895 (inst/sec) elapsed = 0:0:00:02 / Wed Apr 17 12:22:54 2019
GPGPU-Sim PTX: 500000 instructions simulated : ctaid=(0,0,0) tid=(2,12,0)
GPGPU-Sim uArch: cycles simulated: 2500  inst.: 577727 (ipc=231.1) sim_rate=192575 (inst/sec) elapsed = 0:0:00:03 / Wed Apr 17 12:22:55 2019
GPGPU-Sim PTX: 600000 instructions simulated : ctaid=(0,4,0) tid=(7,11,0)
GPGPU-Sim PTX: 700000 instructions simulated : ctaid=(3,0,0) tid=(1,5,0)
GPGPU-Sim PTX: 800000 instructions simulated : ctaid=(5,2,0) tid=(2,12,0)
GPGPU-Sim PTX: 900000 instructions simulated : ctaid=(4,3,0) tid=(7,9,0)
GPGPU-Sim PTX: 1000000 instructions simulated : ctaid=(0,10,0) tid=(5,8,0)
GPGPU-Sim PTX: 1100000 instructions simulated : ctaid=(2,19,0) tid=(6,0,0)
GPGPU-Sim PTX: 1200000 instructions simulated : ctaid=(3,5,0) tid=(9,9,0)
GPGPU-Sim uArch: cycles simulated: 3500  inst.: 1207429 (ipc=345.0) sim_rate=301857 (inst/sec) elapsed = 0:0:00:04 / Wed Apr 17 12:22:56 2019
GPGPU-Sim PTX: 1300000 instructions simulated : ctaid=(4,4,0) tid=(0,12,0)
GPGPU-Sim PTX: 1400000 instructions simulated : ctaid=(2,7,0) tid=(4,7,0)
GPGPU-Sim PTX: 1500000 instructions simulated : ctaid=(3,8,0) tid=(1,7,0)
GPGPU-Sim PTX: 1600000 instructions simulated : ctaid=(2,13,0) tid=(2,1,0)
GPGPU-Sim uArch: cycles simulated: 4000  inst.: 1592489 (ipc=398.1) sim_rate=318497 (inst/sec) elapsed = 0:0:00:05 / Wed Apr 17 12:22:57 2019
GPGPU-Sim PTX: 1700000 instructions simulated : ctaid=(2,1,0) tid=(0,1,0)
GPGPU-Sim PTX: 1800000 instructions simulated : ctaid=(3,2,0) tid=(6,10,0)
GPGPU-Sim PTX: 1900000 instructions simulated : ctaid=(2,7,0) tid=(9,7,0)
GPGPU-Sim uArch: cycles simulated: 4500  inst.: 1967968 (ipc=437.3) sim_rate=327994 (inst/sec) elapsed = 0:0:00:06 / Wed Apr 17 12:22:58 2019
GPGPU-Sim PTX: 2000000 instructions simulated : ctaid=(1,18,0) tid=(3,10,0)
GPGPU-Sim PTX: 2100000 instructions simulated : ctaid=(4,15,0) tid=(0,2,0)
GPGPU-Sim PTX: 2200000 instructions simulated : ctaid=(2,1,0) tid=(0,12,0)
GPGPU-Sim PTX: 2300000 instructions simulated : ctaid=(0,1,0) tid=(8,5,0)
GPGPU-Sim uArch: cycles simulated: 5000  inst.: 2340909 (ipc=468.2) sim_rate=334415 (inst/sec) elapsed = 0:0:00:07 / Wed Apr 17 12:22:59 2019
GPGPU-Sim PTX: 2400000 instructions simulated : ctaid=(0,2,0) tid=(9,2,0)
GPGPU-Sim PTX: 2500000 instructions simulated : ctaid=(1,11,0) tid=(10,5,0)
GPGPU-Sim PTX: 2600000 instructions simulated : ctaid=(5,19,0) tid=(12,2,0)
GPGPU-Sim PTX: 2700000 instructions simulated : ctaid=(2,2,0) tid=(10,2,0)
GPGPU-Sim PTX: 2800000 instructions simulated : ctaid=(0,13,0) tid=(7,11,0)
GPGPU-Sim PTX: 2900000 instructions simulated : ctaid=(1,18,0) tid=(6,7,0)
GPGPU-Sim PTX: 3000000 instructions simulated : ctaid=(3,14,0) tid=(8,10,0)
GPGPU-Sim uArch: cycles simulated: 6000  inst.: 3087452 (ipc=514.6) sim_rate=385931 (inst/sec) elapsed = 0:0:00:08 / Wed Apr 17 12:23:00 2019
GPGPU-Sim PTX: 3100000 instructions simulated : ctaid=(1,12,0) tid=(2,3,0)
GPGPU-Sim PTX: 3200000 instructions simulated : ctaid=(3,14,0) tid=(11,4,0)
GPGPU-Sim PTX: 3300000 instructions simulated : ctaid=(4,6,0) tid=(5,11,0)
GPGPU-Sim PTX: 3400000 instructions simulated : ctaid=(2,0,0) tid=(5,5,0)
GPGPU-Sim uArch: cycles simulated: 6500  inst.: 3460240 (ipc=532.3) sim_rate=384471 (inst/sec) elapsed = 0:0:00:09 / Wed Apr 17 12:23:01 2019
GPGPU-Sim PTX: 3500000 instructions simulated : ctaid=(2,0,0) tid=(6,5,0)
GPGPU-Sim PTX: 3600000 instructions simulated : ctaid=(2,11,0) tid=(7,3,0)
GPGPU-Sim PTX: 3700000 instructions simulated : ctaid=(2,15,0) tid=(10,11,0)
GPGPU-Sim PTX: 3800000 instructions simulated : ctaid=(4,6,0) tid=(7,0,0)
GPGPU-Sim uArch: cycles simulated: 7000  inst.: 3831694 (ipc=547.4) sim_rate=383169 (inst/sec) elapsed = 0:0:00:10 / Wed Apr 17 12:23:02 2019
GPGPU-Sim PTX: 3900000 instructions simulated : ctaid=(4,16,0) tid=(7,10,0)
GPGPU-Sim PTX: 4000000 instructions simulated : ctaid=(4,13,0) tid=(4,11,0)
GPGPU-Sim PTX: 4100000 instructions simulated : ctaid=(1,5,0) tid=(2,2,0)
GPGPU-Sim PTX: 4200000 instructions simulated : ctaid=(5,19,0) tid=(5,7,0)
GPGPU-Sim PTX: 4300000 instructions simulated : ctaid=(0,18,0) tid=(2,3,0)
GPGPU-Sim PTX: 4400000 instructions simulated : ctaid=(1,3,0) tid=(9,7,0)
GPGPU-Sim PTX: 4500000 instructions simulated : ctaid=(3,12,0) tid=(7,6,0)
GPGPU-Sim uArch: cycles simulated: 8000  inst.: 4578483 (ipc=572.3) sim_rate=416225 (inst/sec) elapsed = 0:0:00:11 / Wed Apr 17 12:23:03 2019
GPGPU-Sim PTX: 4600000 instructions simulated : ctaid=(1,4,0) tid=(9,12,0)
GPGPU-Sim PTX: 4700000 instructions simulated : ctaid=(4,4,0) tid=(2,11,0)
GPGPU-Sim PTX: 4800000 instructions simulated : ctaid=(5,14,0) tid=(6,5,0)
GPGPU-Sim PTX: 4900000 instructions simulated : ctaid=(2,17,0) tid=(8,11,0)
GPGPU-Sim uArch: cycles simulated: 8500  inst.: 4951644 (ipc=582.5) sim_rate=412637 (inst/sec) elapsed = 0:0:00:12 / Wed Apr 17 12:23:04 2019
GPGPU-Sim PTX: 5000000 instructions simulated : ctaid=(5,12,0) tid=(9,4,0)
GPGPU-Sim PTX: 5100000 instructions simulated : ctaid=(2,9,0) tid=(2,1,0)
GPGPU-Sim PTX: 5200000 instructions simulated : ctaid=(3,1,0) tid=(10,10,0)
GPGPU-Sim PTX: 5300000 instructions simulated : ctaid=(0,13,0) tid=(7,11,0)
GPGPU-Sim uArch: cycles simulated: 9000  inst.: 5323525 (ipc=591.5) sim_rate=409501 (inst/sec) elapsed = 0:0:00:13 / Wed Apr 17 12:23:05 2019
GPGPU-Sim PTX: 5400000 instructions simulated : ctaid=(2,15,0) tid=(5,7,0)
GPGPU-Sim PTX: 5500000 instructions simulated : ctaid=(1,13,0) tid=(7,7,0)
GPGPU-Sim PTX: 5600000 instructions simulated : ctaid=(4,17,0) tid=(7,11,0)
GPGPU-Sim PTX: 5700000 instructions simulated : ctaid=(2,10,0) tid=(3,5,0)
GPGPU-Sim PTX: 5800000 instructions simulated : ctaid=(0,0,0) tid=(4,12,0)
GPGPU-Sim PTX: 5900000 instructions simulated : ctaid=(3,6,0) tid=(11,2,0)
GPGPU-Sim PTX: 6000000 instructions simulated : ctaid=(0,19,0) tid=(6,12,0)
GPGPU-Sim uArch: cycles simulated: 10000  inst.: 6067332 (ipc=606.7) sim_rate=433380 (inst/sec) elapsed = 0:0:00:14 / Wed Apr 17 12:23:06 2019
GPGPU-Sim PTX: 6100000 instructions simulated : ctaid=(4,14,0) tid=(2,12,0)
GPGPU-Sim PTX: 6200000 instructions simulated : ctaid=(5,2,0) tid=(9,1,0)
GPGPU-Sim PTX: 6300000 instructions simulated : ctaid=(1,6,0) tid=(3,3,0)
GPGPU-Sim PTX: 6400000 instructions simulated : ctaid=(4,10,0) tid=(9,8,0)
GPGPU-Sim uArch: cycles simulated: 10500  inst.: 6435026 (ipc=612.9) sim_rate=429001 (inst/sec) elapsed = 0:0:00:15 / Wed Apr 17 12:23:07 2019
GPGPU-Sim PTX: 6500000 instructions simulated : ctaid=(0,8,0) tid=(12,7,0)
GPGPU-Sim PTX: 6600000 instructions simulated : ctaid=(5,10,0) tid=(4,11,0)
GPGPU-Sim PTX: 6700000 instructions simulated : ctaid=(3,2,0) tid=(3,4,0)
GPGPU-Sim PTX: 6800000 instructions simulated : ctaid=(2,3,0) tid=(12,2,0)
GPGPU-Sim PTX: 6900000 instructions simulated : ctaid=(4,10,0) tid=(7,11,0)
GPGPU-Sim PTX: 7000000 instructions simulated : ctaid=(1,1,0) tid=(5,10,0)
GPGPU-Sim uArch: cycles simulated: 11500  inst.: 7080830 (ipc=615.7) sim_rate=442551 (inst/sec) elapsed = 0:0:00:16 / Wed Apr 17 12:23:08 2019
GPGPU-Sim PTX: 7100000 instructions simulated : ctaid=(2,12,0) tid=(7,1,0)
GPGPU-Sim uArch: Shader 13 finished CTA #0 (11659,0), 7 CTAs running
GPGPU-Sim uArch: core: 13, cta: 0 initialized @(11660,0)
GPGPU-Sim PTX: 7200000 instructions simulated : ctaid=(3,3,0) tid=(6,8,0)
GPGPU-Sim uArch: Shader 11 finished CTA #1 (11758,0), 7 CTAs running
GPGPU-Sim uArch: core: 11, cta: 1 initialized @(11759,0)
GPGPU-Sim uArch: Shader 11 finished CTA #0 (11793,0), 7 CTAs running
GPGPU-Sim uArch: core: 11, cta: 0 initialized @(11794,0)
GPGPU-Sim PTX: 7300000 instructions simulated : ctaid=(2,10,0) tid=(6,11,0)
GPGPU-Sim uArch: cycles simulated: 12000  inst.: 7340490 (ipc=611.7) sim_rate=431793 (inst/sec) elapsed = 0:0:00:17 / Wed Apr 17 12:23:09 2019
GPGPU-Sim PTX: 7400000 instructions simulated : ctaid=(4,14,0) tid=(4,2,0)
GPGPU-Sim uArch: Shader 8 finished CTA #0 (12071,0), 7 CTAs running
GPGPU-Sim uArch: core:  8, cta: 0 initialized @(12072,0)
GPGPU-Sim uArch: Shader 10 finished CTA #0 (12075,0), 7 CTAs running
GPGPU-Sim uArch: core: 10, cta: 0 initialized @(12076,0)
GPGPU-Sim uArch: Shader 9 finished CTA #0 (12129,0), 7 CTAs running
GPGPU-Sim uArch: core:  9, cta: 0 initialized @(12130,0)
GPGPU-Sim uArch: Shader 1 finished CTA #0 (12162,0), 7 CTAs running
GPGPU-Sim uArch: core:  1, cta: 0 initialized @(12163,0)
GPGPU-Sim uArch: Shader 6 finished CTA #0 (12179,0), 7 CTAs running
GPGPU-Sim uArch: core:  6, cta: 0 initialized @(12180,0)
GPGPU-Sim uArch: Shader 11 finished CTA #2 (12211,0), 7 CTAs running
GPGPU-Sim uArch: core: 11, cta: 2 initialized @(12212,0)
GPGPU-Sim PTX: 7500000 instructions simulated : ctaid=(4,9,0) tid=(12,9,0)
GPGPU-Sim uArch: Shader 3 finished CTA #0 (12253,0), 7 CTAs running
GPGPU-Sim uArch: core:  3, cta: 0 initialized @(12254,0)
GPGPU-Sim uArch: Shader 10 finished CTA #1 (12264,0), 7 CTAs running
GPGPU-Sim uArch: core: 10, cta: 1 initialized @(12265,0)
GPGPU-Sim uArch: Shader 2 finished CTA #1 (12269,0), 7 CTAs running
GPGPU-Sim uArch: core:  2, cta: 1 initialized @(12270,0)
GPGPU-Sim uArch: Shader 13 finished CTA #1 (12282,0), 7 CTAs running
GPGPU-Sim uArch: core: 13, cta: 1 initialized @(12283,0)
GPGPU-Sim uArch: Shader 12 finished CTA #0 (12296,0), 7 CTAs running
GPGPU-Sim uArch: core: 12, cta: 0 initialized @(12297,0)
GPGPU-Sim uArch: Shader 2 finished CTA #0 (12305,0), 7 CTAs running
GPGPU-Sim uArch: core:  2, cta: 0 initialized @(12306,0)
GPGPU-Sim uArch: Shader 3 finished CTA #1 (12306,0), 7 CTAs running
GPGPU-Sim uArch: core:  3, cta: 1 initialized @(12307,0)
GPGPU-Sim uArch: Shader 6 finished CTA #1 (12309,0), 7 CTAs running
GPGPU-Sim uArch: core:  6, cta: 1 initialized @(12310,0)
GPGPU-Sim uArch: Shader 1 finished CTA #1 (12310,0), 7 CTAs running
GPGPU-Sim uArch: core:  1, cta: 1 initialized @(12311,0)
GPGPU-Sim uArch: Shader 12 finished CTA #1 (12311,0), 7 CTAs running
GPGPU-Sim uArch: core: 12, cta: 1 initialized @(12312,0)
GPGPU-Sim uArch: Shader 7 finished CTA #0 (12312,0), 7 CTAs running
GPGPU-Sim uArch: core:  7, cta: 0 initialized @(12313,0)
GPGPU-Sim uArch: Shader 8 finished CTA #1 (12326,0), 7 CTAs running
GPGPU-Sim uArch: core:  8, cta: 1 initialized @(12327,0)
GPGPU-Sim uArch: Shader 14 finished CTA #0 (12328,0), 7 CTAs running
GPGPU-Sim uArch: core: 14, cta: 0 initialized @(12329,0)
GPGPU-Sim uArch: Shader 5 finished CTA #0 (12331,0), 7 CTAs running
GPGPU-Sim uArch: core:  5, cta: 0 initialized @(12332,0)
GPGPU-Sim uArch: Shader 8 finished CTA #2 (12340,0), 7 CTAs running
GPGPU-Sim uArch: core:  8, cta: 2 initialized @(12341,0)
GPGPU-Sim uArch: Shader 9 finished CTA #1 (12343,0), 7 CTAs running
GPGPU-Sim uArch: core:  9, cta: 1 initialized @(12344,0)
GPGPU-Sim uArch: Shader 1 finished CTA #2 (12387,0), 7 CTAs running
GPGPU-Sim uArch: core:  1, cta: 2 initialized @(12388,0)
GPGPU-Sim PTX: 7600000 instructions simulated : ctaid=(2,17,0) tid=(4,0,0)
GPGPU-Sim uArch: Shader 0 finished CTA #0 (12401,0), 7 CTAs running
GPGPU-Sim uArch: core:  0, cta: 0 initialized @(12402,0)
GPGPU-Sim uArch: Shader 5 finished CTA #1 (12403,0), 7 CTAs running
GPGPU-Sim uArch: core:  5, cta: 1 initialized @(12404,0)
GPGPU-Sim uArch: Shader 14 finished CTA #1 (12412,0), 7 CTAs running
GPGPU-Sim uArch: core: 14, cta: 1 initialized @(12413,0)
GPGPU-Sim uArch: Shader 6 finished CTA #2 (12418,0), 7 CTAs running
GPGPU-Sim uArch: core:  6, cta: 2 initialized @(12419,0)
GPGPU-Sim uArch: Shader 4 finished CTA #1 (12426,0), 7 CTAs running
GPGPU-Sim uArch: core:  4, cta: 1 initialized @(12427,0)
GPGPU-Sim uArch: Shader 2 finished CTA #2 (12473,0), 7 CTAs running
GPGPU-Sim uArch: core:  2, cta: 2 initialized @(12474,0)
GPGPU-Sim uArch: Shader 13 finished CTA #2 (12487,0), 7 CTAs running
GPGPU-Sim uArch: core: 13, cta: 2 initialized @(12488,0)
GPGPU-Sim uArch: Shader 10 finished CTA #2 (12488,0), 7 CTAs running
GPGPU-Sim uArch: core: 10, cta: 2 initialized @(12489,0)
GPGPU-Sim uArch: cycles simulated: 12500  inst.: 7640762 (ipc=611.3) sim_rate=424486 (inst/sec) elapsed = 0:0:00:18 / Wed Apr 17 12:23:10 2019
GPGPU-Sim uArch: Shader 4 finished CTA #0 (12506,0), 7 CTAs running
GPGPU-Sim uArch: core:  4, cta: 0 initialized @(12507,0)
GPGPU-Sim uArch: Shader 12 finished CTA #2 (12517,0), 7 CTAs running
GPGPU-Sim uArch: core: 12, cta: 2 initialized @(12518,0)
GPGPU-Sim uArch: Shader 3 finished CTA #2 (12537,0), 7 CTAs running
GPGPU-Sim uArch: core:  3, cta: 2 initialized @(12538,0)
GPGPU-Sim PTX: 7700000 instructions simulated : ctaid=(2,17,0) tid=(3,1,0)
GPGPU-Sim uArch: Shader 14 finished CTA #2 (12553,0), 7 CTAs running
GPGPU-Sim uArch: core: 14, cta: 2 initialized @(12554,0)
GPGPU-Sim uArch: Shader 11 finished CTA #3 (12572,0), 7 CTAs running
GPGPU-Sim uArch: core: 11, cta: 3 initialized @(12573,0)
GPGPU-Sim uArch: Shader 5 finished CTA #2 (12573,0), 7 CTAs running
GPGPU-Sim uArch: core:  5, cta: 2 initialized @(12574,0)
GPGPU-Sim uArch: Shader 0 finished CTA #1 (12580,0), 7 CTAs running
GPGPU-Sim uArch: core:  0, cta: 1 initialized @(12581,0)
GPGPU-Sim uArch: Shader 7 finished CTA #1 (12628,0), 7 CTAs running
GPGPU-Sim uArch: core:  7, cta: 1 initialized @(12629,0)
GPGPU-Sim uArch: Shader 4 finished CTA #2 (12651,0), 7 CTAs running
GPGPU-Sim uArch: core:  4, cta: 2 initialized @(12652,0)
GPGPU-Sim uArch: Shader 7 finished CTA #2 (12669,0), 7 CTAs running
GPGPU-Sim uArch: core:  7, cta: 2 initialized @(12670,0)
GPGPU-Sim uArch: Shader 9 finished CTA #2 (12679,0), 7 CTAs running
GPGPU-Sim uArch: core:  9, cta: 2 initialized @(12680,0)
GPGPU-Sim PTX: 7800000 instructions simulated : ctaid=(4,14,0) tid=(3,5,0)
GPGPU-Sim uArch: Shader 3 finished CTA #3 (12738,0), 7 CTAs running
GPGPU-Sim uArch: core:  3, cta: 3 initialized @(12739,0)
GPGPU-Sim uArch: Shader 13 finished CTA #3 (12777,0), 7 CTAs running
GPGPU-Sim uArch: core: 13, cta: 3 initialized @(12778,0)
GPGPU-Sim uArch: Shader 0 finished CTA #2 (12782,0), 7 CTAs running
GPGPU-Sim uArch: core:  0, cta: 2 initialized @(12783,0)
GPGPU-Sim uArch: Shader 10 finished CTA #3 (12831,0), 7 CTAs running
GPGPU-Sim uArch: Shader 6 finished CTA #3 (12832,0), 7 CTAs running
GPGPU-Sim PTX: 7900000 instructions simulated : ctaid=(2,9,0) tid=(7,8,0)
GPGPU-Sim uArch: Shader 14 finished CTA #3 (12886,0), 7 CTAs running
GPGPU-Sim uArch: Shader 8 finished CTA #3 (12906,0), 7 CTAs running
GPGPU-Sim uArch: cycles simulated: 13000  inst.: 7963833 (ipc=612.6) sim_rate=419149 (inst/sec) elapsed = 0:0:00:19 / Wed Apr 17 12:23:11 2019
GPGPU-Sim PTX: 8000000 instructions simulated : ctaid=(0,21,0) tid=(5,11,0)
GPGPU-Sim uArch: Shader 1 finished CTA #3 (13031,0), 7 CTAs running
GPGPU-Sim uArch: Shader 12 finished CTA #3 (13036,0), 7 CTAs running
GPGPU-Sim uArch: Shader 5 finished CTA #3 (13052,0), 7 CTAs running
GPGPU-Sim uArch: Shader 11 finished CTA #4 (13057,0), 7 CTAs running
GPGPU-Sim uArch: Shader 4 finished CTA #3 (13058,0), 7 CTAs running
GPGPU-Sim uArch: Shader 2 finished CTA #3 (13067,0), 7 CTAs running
GPGPU-Sim uArch: Shader 8 finished CTA #4 (13099,0), 6 CTAs running
GPGPU-Sim uArch: Shader 3 finished CTA #4 (13116,0), 7 CTAs running
GPGPU-Sim uArch: Shader 10 finished CTA #4 (13121,0), 6 CTAs running
GPGPU-Sim uArch: Shader 9 finished CTA #3 (13125,0), 7 CTAs running
GPGPU-Sim uArch: Shader 9 finished CTA #4 (13137,0), 6 CTAs running
GPGPU-Sim PTX: 8100000 instructions simulated : ctaid=(3,19,0) tid=(11,5,0)
GPGPU-Sim uArch: Shader 0 finished CTA #3 (13164,0), 7 CTAs running
GPGPU-Sim uArch: Shader 14 finished CTA #4 (13212,0), 6 CTAs running
GPGPU-Sim uArch: Shader 1 finished CTA #4 (13232,0), 6 CTAs running
GPGPU-Sim uArch: Shader 12 finished CTA #4 (13237,0), 6 CTAs running
GPGPU-Sim uArch: Shader 13 finished CTA #4 (13242,0), 7 CTAs running
GPGPU-Sim uArch: Shader 2 finished CTA #4 (13247,0), 6 CTAs running
GPGPU-Sim uArch: Shader 6 finished CTA #4 (13267,0), 6 CTAs running
GPGPU-Sim PTX: 8200000 instructions simulated : ctaid=(4,17,0) tid=(10,10,0)
GPGPU-Sim uArch: Shader 7 finished CTA #3 (13418,0), 7 CTAs running
GPGPU-Sim uArch: Shader 4 finished CTA #4 (13426,0), 6 CTAs running
GPGPU-Sim PTX: 8300000 instructions simulated : ctaid=(1,24,0) tid=(8,11,0)
GPGPU-Sim uArch: cycles simulated: 13500  inst.: 8296131 (ipc=614.5) sim_rate=414806 (inst/sec) elapsed = 0:0:00:20 / Wed Apr 17 12:23:12 2019
GPGPU-Sim uArch: Shader 7 finished CTA #4 (13504,0), 6 CTAs running
GPGPU-Sim uArch: Shader 0 finished CTA #4 (13549,0), 6 CTAs running
GPGPU-Sim uArch: Shader 5 finished CTA #4 (13573,0), 6 CTAs running
GPGPU-Sim uArch: Shader 11 finished CTA #5 (13575,0), 6 CTAs running
GPGPU-Sim uArch: Shader 9 finished CTA #5 (13598,0), 5 CTAs running
GPGPU-Sim PTX: 8400000 instructions simulated : ctaid=(5,17,0) tid=(4,10,0)
GPGPU-Sim uArch: Shader 12 finished CTA #5 (13620,0), 5 CTAs running
GPGPU-Sim uArch: Shader 6 finished CTA #5 (13662,0), 5 CTAs running
GPGPU-Sim uArch: Shader 10 finished CTA #5 (13666,0), 5 CTAs running
GPGPU-Sim uArch: Shader 13 finished CTA #5 (13674,0), 6 CTAs running
GPGPU-Sim uArch: Shader 5 finished CTA #5 (13717,0), 5 CTAs running
GPGPU-Sim PTX: 8500000 instructions simulated : ctaid=(5,18,0) tid=(9,9,0)
GPGPU-Sim uArch: Shader 14 finished CTA #5 (13760,0), 5 CTAs running
GPGPU-Sim uArch: Shader 3 finished CTA #5 (13803,0), 6 CTAs running
GPGPU-Sim uArch: Shader 1 finished CTA #5 (13834,0), 5 CTAs running
GPGPU-Sim uArch: Shader 0 finished CTA #5 (13863,0), 5 CTAs running
GPGPU-Sim PTX: 8600000 instructions simulated : ctaid=(0,20,0) tid=(3,12,0)
GPGPU-Sim uArch: Shader 4 finished CTA #5 (13895,0), 5 CTAs running
GPGPU-Sim uArch: Shader 2 finished CTA #5 (13905,0), 5 CTAs running
GPGPU-Sim uArch: Shader 8 finished CTA #5 (13912,0), 5 CTAs running
GPGPU-Sim uArch: cycles simulated: 14000  inst.: 8647272 (ipc=617.7) sim_rate=411774 (inst/sec) elapsed = 0:0:00:21 / Wed Apr 17 12:23:13 2019
GPGPU-Sim PTX: 8700000 instructions simulated : ctaid=(5,21,0) tid=(12,4,0)
GPGPU-Sim uArch: Shader 1 finished CTA #6 (14143,0), 4 CTAs running
GPGPU-Sim PTX: 8800000 instructions simulated : ctaid=(5,24,0) tid=(7,11,0)
GPGPU-Sim uArch: Shader 2 finished CTA #6 (14206,0), 4 CTAs running
GPGPU-Sim uArch: Shader 4 finished CTA #6 (14250,0), 4 CTAs running
GPGPU-Sim PTX: 8900000 instructions simulated : ctaid=(4,23,0) tid=(2,12,0)
GPGPU-Sim uArch: Shader 7 finished CTA #5 (14323,0), 5 CTAs running
GPGPU-Sim uArch: Shader 9 finished CTA #6 (14325,0), 4 CTAs running
GPGPU-Sim uArch: Shader 12 finished CTA #6 (14381,0), 4 CTAs running
GPGPU-Sim uArch: Shader 10 finished CTA #6 (14425,0), 4 CTAs running
GPGPU-Sim uArch: Shader 6 finished CTA #6 (14426,0), 4 CTAs running
GPGPU-Sim PTX: 9000000 instructions simulated : ctaid=(3,19,0) tid=(4,4,0)
GPGPU-Sim uArch: cycles simulated: 14500  inst.: 9002884 (ipc=620.9) sim_rate=409222 (inst/sec) elapsed = 0:0:00:22 / Wed Apr 17 12:23:14 2019
GPGPU-Sim uArch: Shader 8 finished CTA #6 (14518,0), 4 CTAs running
GPGPU-Sim uArch: Shader 11 finished CTA #6 (14558,0), 5 CTAs running
GPGPU-Sim PTX: 9100000 instructions simulated : ctaid=(4,27,0) tid=(4,0,0)
GPGPU-Sim uArch: Shader 13 finished CTA #6 (14649,0), 5 CTAs running
GPGPU-Sim PTX: 9200000 instructions simulated : ctaid=(2,27,0) tid=(0,7,0)
GPGPU-Sim uArch: Shader 5 finished CTA #6 (14728,0), 4 CTAs running
GPGPU-Sim uArch: Shader 14 finished CTA #6 (14735,0), 4 CTAs running
GPGPU-Sim uArch: Shader 3 finished CTA #6 (14763,0), 5 CTAs running
GPGPU-Sim uArch: Shader 0 finished CTA #6 (14768,0), 4 CTAs running
GPGPU-Sim uArch: Shader 7 finished CTA #6 (14776,0), 4 CTAs running
GPGPU-Sim PTX: 9300000 instructions simulated : ctaid=(5,22,0) tid=(8,0,0)
GPGPU-Sim uArch: Shader 0 finished CTA #7 (14954,0), 3 CTAs running
GPGPU-Sim PTX: 9400000 instructions simulated : ctaid=(2,24,0) tid=(10,9,0)
GPGPU-Sim uArch: cycles simulated: 15000  inst.: 9368497 (ipc=624.6) sim_rate=407325 (inst/sec) elapsed = 0:0:00:23 / Wed Apr 17 12:23:15 2019
GPGPU-Sim uArch: Shader 4 finished CTA #7 (15016,0), 3 CTAs running
GPGPU-Sim uArch: Shader 5 finished CTA #7 (15117,0), 3 CTAs running
GPGPU-Sim PTX: 9500000 instructions simulated : ctaid=(1,23,0) tid=(3,1,0)
GPGPU-Sim uArch: Shader 10 finished CTA #7 (15211,0), 3 CTAs running
GPGPU-Sim uArch: Shader 6 finished CTA #7 (15214,0), 3 CTAs running
GPGPU-Sim uArch: Shader 14 finished CTA #7 (15238,0), 3 CTAs running
GPGPU-Sim uArch: Shader 9 finished CTA #7 (15256,0), 3 CTAs running
GPGPU-Sim PTX: 9600000 instructions simulated : ctaid=(0,21,0) tid=(6,12,0)
GPGPU-Sim uArch: Shader 12 finished CTA #7 (15332,0), 3 CTAs running
GPGPU-Sim PTX: 9700000 instructions simulated : ctaid=(4,24,0) tid=(6,3,0)
GPGPU-Sim uArch: Shader 1 finished CTA #7 (15470,0), 3 CTAs running
GPGPU-Sim uArch: cycles simulated: 15500  inst.: 9734866 (ipc=628.1) sim_rate=405619 (inst/sec) elapsed = 0:0:00:24 / Wed Apr 17 12:23:16 2019
GPGPU-Sim PTX: 9800000 instructions simulated : ctaid=(5,27,0) tid=(1,0,0)
GPGPU-Sim uArch: Shader 13 finished CTA #7 (15542,0), 4 CTAs running
GPGPU-Sim PTX: 9900000 instructions simulated : ctaid=(1,20,0) tid=(10,12,0)
GPGPU-Sim uArch: Shader 11 finished CTA #7 (15704,0), 4 CTAs running
GPGPU-Sim uArch: Shader 7 finished CTA #7 (15782,0), 3 CTAs running
GPGPU-Sim PTX: 10000000 instructions simulated : ctaid=(2,20,0) tid=(0,3,0)
GPGPU-Sim uArch: Shader 2 finished CTA #7 (15829,0), 3 CTAs running
GPGPU-Sim PTX: 10100000 instructions simulated : ctaid=(2,23,0) tid=(4,10,0)
GPGPU-Sim PTX: 10200000 instructions simulated : ctaid=(2,25,0) tid=(8,5,0)
GPGPU-Sim uArch: Shader 8 finished CTA #7 (16122,0), 3 CTAs running
GPGPU-Sim uArch: Shader 3 finished CTA #7 (16208,0), 4 CTAs running
GPGPU-Sim PTX: 10300000 instructions simulated : ctaid=(5,20,0) tid=(8,6,0)
GPGPU-Sim PTX: 10400000 instructions simulated : ctaid=(0,24,0) tid=(0,10,0)
GPGPU-Sim PTX: 10500000 instructions simulated : ctaid=(5,25,0) tid=(4,2,0)
GPGPU-Sim uArch: cycles simulated: 16500  inst.: 10473235 (ipc=634.7) sim_rate=418929 (inst/sec) elapsed = 0:0:00:25 / Wed Apr 17 12:23:17 2019
GPGPU-Sim PTX: 10600000 instructions simulated : ctaid=(4,21,0) tid=(7,1,0)
GPGPU-Sim PTX: 10700000 instructions simulated : ctaid=(0,23,0) tid=(9,3,0)
GPGPU-Sim PTX: 10800000 instructions simulated : ctaid=(1,23,0) tid=(10,10,0)
GPGPU-Sim uArch: cycles simulated: 17000  inst.: 10821873 (ipc=636.6) sim_rate=416225 (inst/sec) elapsed = 0:0:00:26 / Wed Apr 17 12:23:18 2019
GPGPU-Sim PTX: 10900000 instructions simulated : ctaid=(1,24,0) tid=(3,3,0)
GPGPU-Sim PTX: 11000000 instructions simulated : ctaid=(4,25,0) tid=(10,7,0)
GPGPU-Sim PTX: 11100000 instructions simulated : ctaid=(5,22,0) tid=(4,9,0)
GPGPU-Sim uArch: cycles simulated: 17500  inst.: 11130702 (ipc=636.0) sim_rate=412248 (inst/sec) elapsed = 0:0:00:27 / Wed Apr 17 12:23:19 2019
GPGPU-Sim PTX: 11200000 instructions simulated : ctaid=(3,25,0) tid=(5,8,0)
GPGPU-Sim uArch: Shader 14 finished CTA #0 (17700,0), 2 CTAs running
GPGPU-Sim uArch: Shader 10 finished CTA #0 (17713,0), 2 CTAs running
GPGPU-Sim uArch: Shader 9 finished CTA #0 (17719,0), 2 CTAs running
GPGPU-Sim uArch: Shader 12 finished CTA #0 (17747,0), 2 CTAs running
GPGPU-Sim PTX: 11300000 instructions simulated : ctaid=(3,20,0) tid=(6,12,0)
GPGPU-Sim uArch: Shader 5 finished CTA #0 (17753,0), 2 CTAs running
GPGPU-Sim uArch: Shader 7 finished CTA #0 (17917,0), 2 CTAs running
GPGPU-Sim uArch: Shader 8 finished CTA #0 (17955,0), 2 CTAs running
GPGPU-Sim uArch: Shader 1 finished CTA #0 (17964,0), 2 CTAs running
GPGPU-Sim PTX: 11400000 instructions simulated : ctaid=(3,25,0) tid=(10,8,0)
GPGPU-Sim uArch: Shader 6 finished CTA #0 (17996,0), 2 CTAs running
GPGPU-Sim uArch: cycles simulated: 18000  inst.: 11365922 (ipc=631.4) sim_rate=405925 (inst/sec) elapsed = 0:0:00:28 / Wed Apr 17 12:23:20 2019
GPGPU-Sim uArch: Shader 2 finished CTA #1 (18070,0), 2 CTAs running
GPGPU-Sim uArch: Shader 4 finished CTA #1 (18099,0), 2 CTAs running
GPGPU-Sim uArch: Shader 1 finished CTA #1 (18246,0), 1 CTAs running
GPGPU-Sim PTX: 11500000 instructions simulated : ctaid=(2,21,0) tid=(4,12,0)
GPGPU-Sim uArch: Shader 4 finished CTA #0 (18314,0), 1 CTAs running
GPGPU-Sim uArch: Shader 6 finished CTA #1 (18321,0), 1 CTAs running
GPGPU-Sim uArch: Shader 2 finished CTA #0 (18339,0), 1 CTAs running
GPGPU-Sim uArch: Shader 9 finished CTA #1 (18357,0), 1 CTAs running
GPGPU-Sim uArch: Shader 12 finished CTA #1 (18378,0), 1 CTAs running
GPGPU-Sim uArch: Shader 0 finished CTA #1 (18459,0), 2 CTAs running
GPGPU-Sim uArch: Shader 0 finished CTA #0 (18487,0), 1 CTAs running
GPGPU-Sim uArch: Shader 8 finished CTA #1 (18507,0), 1 CTAs running
GPGPU-Sim uArch: Shader 10 finished CTA #1 (18542,0), 1 CTAs running
GPGPU-Sim uArch: Shader 14 finished CTA #1 (18565,0), 1 CTAs running
GPGPU-Sim uArch: Shader 7 finished CTA #1 (18589,0), 1 CTAs running
GPGPU-Sim uArch: Shader 5 finished CTA #1 (18592,0), 1 CTAs running
GPGPU-Sim uArch: Shader 13 finished CTA #0 (18600,0), 3 CTAs running
GPGPU-Sim PTX: 11600000 instructions simulated : ctaid=(2,26,0) tid=(4,2,0)
GPGPU-Sim uArch: Shader 11 finished CTA #1 (18678,0), 3 CTAs running
GPGPU-Sim uArch: Shader 3 finished CTA #0 (18844,0), 3 CTAs running
GPGPU-Sim uArch: Shader 11 finished CTA #0 (18983,0), 2 CTAs running
GPGPU-Sim uArch: Shader 13 finished CTA #1 (19083,0), 2 CTAs running
GPGPU-Sim uArch: Shader 3 finished CTA #1 (19146,0), 2 CTAs running
GPGPU-Sim uArch: Shader 4 finished CTA #2 (19164,0), 0 CTAs running
GPGPU-Sim uArch: Shader 4 empty (release kernel 1 '_Z17executeFirstLayerPfS_S_').
GPGPU-Sim uArch: Shader 8 finished CTA #2 (19206,0), 0 CTAs running
GPGPU-Sim uArch: Shader 8 empty (release kernel 1 '_Z17executeFirstLayerPfS_S_').
GPGPU-Sim uArch: Shader 9 finished CTA #2 (19235,0), 0 CTAs running
GPGPU-Sim uArch: Shader 9 empty (release kernel 1 '_Z17executeFirstLayerPfS_S_').
GPGPU-Sim uArch: Shader 10 finished CTA #2 (19333,0), 0 CTAs running
GPGPU-Sim uArch: Shader 10 empty (release kernel 1 '_Z17executeFirstLayerPfS_S_').
GPGPU-Sim uArch: Shader 14 finished CTA #2 (19333,0), 0 CTAs running
GPGPU-Sim uArch: Shader 14 empty (release kernel 1 '_Z17executeFirstLayerPfS_S_').
GPGPU-Sim uArch: Shader 1 finished CTA #2 (19341,0), 0 CTAs running
GPGPU-Sim uArch: Shader 1 empty (release kernel 1 '_Z17executeFirstLayerPfS_S_').
GPGPU-Sim uArch: Shader 2 finished CTA #2 (19355,0), 0 CTAs running
GPGPU-Sim uArch: Shader 2 empty (release kernel 1 '_Z17executeFirstLayerPfS_S_').
GPGPU-Sim uArch: Shader 6 finished CTA #2 (19361,0), 0 CTAs running
GPGPU-Sim uArch: Shader 6 empty (release kernel 1 '_Z17executeFirstLayerPfS_S_').
GPGPU-Sim uArch: Shader 12 finished CTA #2 (19395,0), 0 CTAs running
GPGPU-Sim uArch: Shader 12 empty (release kernel 1 '_Z17executeFirstLayerPfS_S_').
GPGPU-Sim uArch: Shader 7 finished CTA #2 (19400,0), 0 CTAs running
GPGPU-Sim uArch: Shader 7 empty (release kernel 1 '_Z17executeFirstLayerPfS_S_').
GPGPU-Sim uArch: Shader 0 finished CTA #2 (19484,0), 0 CTAs running
GPGPU-Sim uArch: Shader 0 empty (release kernel 1 '_Z17executeFirstLayerPfS_S_').
GPGPU-Sim uArch: cycles simulated: 19500  inst.: 11660154 (ipc=598.0) sim_rate=402074 (inst/sec) elapsed = 0:0:00:29 / Wed Apr 17 12:23:21 2019
GPGPU-Sim uArch: Shader 5 finished CTA #2 (19505,0), 0 CTAs running
GPGPU-Sim uArch: Shader 5 empty (release kernel 1 '_Z17executeFirstLayerPfS_S_').
GPGPU-Sim PTX: 11700000 instructions simulated : ctaid=(2,21,0) tid=(5,12,0)
GPGPU-Sim uArch: Shader 11 finished CTA #2 (19772,0), 1 CTAs running
GPGPU-Sim uArch: Shader 3 finished CTA #2 (19978,0), 1 CTAs running
GPGPU-Sim uArch: Shader 13 finished CTA #2 (19982,0), 1 CTAs running
GPGPU-Sim uArch: Shader 11 finished CTA #3 (20827,0), 0 CTAs running
GPGPU-Sim uArch: Shader 11 empty (release kernel 1 '_Z17executeFirstLayerPfS_S_').
GPGPU-Sim uArch: Shader 3 finished CTA #3 (20904,0), 0 CTAs running
GPGPU-Sim uArch: Shader 3 empty (release kernel 1 '_Z17executeFirstLayerPfS_S_').
GPGPU-Sim uArch: Shader 13 finished CTA #3 (20939,0), 0 CTAs running
GPGPU-Sim uArch: Shader 13 empty (release kernel 1 '_Z17executeFirstLayerPfS_S_').
GPGPU-Sim uArch: GPU detected kernel '_Z17executeFirstLayerPfS_S_' finished on shader 13.
kernel_name = _Z17executeFirstLayerPfS_S_ 
kernel_launch_uid = 1 
gpu_sim_cycle = 20940
gpu_sim_insn = 11694074
gpu_ipc =     558.4562
gpu_tot_sim_cycle = 20940
gpu_tot_sim_insn = 11694074
gpu_tot_ipc =     558.4562
gpu_tot_issued_cta = 0
gpu_stall_dramfull = 10363
gpu_stall_icnt2sh    = 20217
gpu_total_sim_rate=403243

========= Core cache stats =========
L1I_cache:
	L1I_total_cache_accesses = 245101
	L1I_total_cache_misses = 1221
	L1I_total_cache_miss_rate = 0.0050
	L1I_total_cache_pending_hits = 0
	L1I_total_cache_reservation_fails = 4140
L1D_cache:
	L1D_cache_core[0]: Access = 9382, Miss = 423, Miss_rate = 0.045, Pending_hits = 28, Reservation_fails = 1509
	L1D_cache_core[1]: Access = 9395, Miss = 424, Miss_rate = 0.045, Pending_hits = 35, Reservation_fails = 1354
	L1D_cache_core[2]: Access = 9382, Miss = 429, Miss_rate = 0.046, Pending_hits = 37, Reservation_fails = 1390
	L1D_cache_core[3]: Access = 10220, Miss = 462, Miss_rate = 0.045, Pending_hits = 28, Reservation_fails = 1471
	L1D_cache_core[4]: Access = 9389, Miss = 399, Miss_rate = 0.042, Pending_hits = 44, Reservation_fails = 1425
	L1D_cache_core[5]: Access = 9375, Miss = 422, Miss_rate = 0.045, Pending_hits = 31, Reservation_fails = 1477
	L1D_cache_core[6]: Access = 9399, Miss = 429, Miss_rate = 0.046, Pending_hits = 29, Reservation_fails = 1377
	L1D_cache_core[7]: Access = 9351, Miss = 550, Miss_rate = 0.059, Pending_hits = 33, Reservation_fails = 1684
	L1D_cache_core[8]: Access = 9375, Miss = 498, Miss_rate = 0.053, Pending_hits = 41, Reservation_fails = 1490
	L1D_cache_core[9]: Access = 9405, Miss = 505, Miss_rate = 0.054, Pending_hits = 32, Reservation_fails = 1471
	L1D_cache_core[10]: Access = 9374, Miss = 426, Miss_rate = 0.045, Pending_hits = 34, Reservation_fails = 1390
	L1D_cache_core[11]: Access = 10212, Miss = 431, Miss_rate = 0.042, Pending_hits = 52, Reservation_fails = 1337
	L1D_cache_core[12]: Access = 9331, Miss = 425, Miss_rate = 0.046, Pending_hits = 24, Reservation_fails = 1376
	L1D_cache_core[13]: Access = 10235, Miss = 467, Miss_rate = 0.046, Pending_hits = 24, Reservation_fails = 1483
	L1D_cache_core[14]: Access = 9377, Miss = 429, Miss_rate = 0.046, Pending_hits = 34, Reservation_fails = 1424
	L1D_total_cache_accesses = 143202
	L1D_total_cache_misses = 6719
	L1D_total_cache_miss_rate = 0.0469
	L1D_total_cache_pending_hits = 506
	L1D_total_cache_reservation_fails = 21658
	L1D_cache_data_port_util = 0.461
	L1D_cache_fill_port_util = 0.016
L1C_cache:
	L1C_total_cache_accesses = 28224
	L1C_total_cache_misses = 990
	L1C_total_cache_miss_rate = 0.0351
	L1C_total_cache_pending_hits = 0
	L1C_total_cache_reservation_fails = 5136
L1T_cache:
	L1T_total_cache_accesses = 0
	L1T_total_cache_misses = 0
	L1T_total_cache_pending_hits = 0
	L1T_total_cache_reservation_fails = 0

Total_core_cache_stats:
	Total_core_cache_stats_breakdown[GLOBAL_ACC_R][HIT] = 135977
	Total_core_cache_stats_breakdown[GLOBAL_ACC_R][HIT_RESERVED] = 506
	Total_core_cache_stats_breakdown[GLOBAL_ACC_R][MISS] = 4859
	Total_core_cache_stats_breakdown[GLOBAL_ACC_R][RESERVATION_FAIL] = 21650
	Total_core_cache_stats_breakdown[CONST_ACC_R][HIT] = 27234
	Total_core_cache_stats_breakdown[CONST_ACC_R][MISS] = 990
	Total_core_cache_stats_breakdown[CONST_ACC_R][RESERVATION_FAIL] = 5136
	Total_core_cache_stats_breakdown[GLOBAL_ACC_W][MISS] = 1860
	Total_core_cache_stats_breakdown[GLOBAL_ACC_W][RESERVATION_FAIL] = 8
	Total_core_cache_stats_breakdown[INST_ACC_R][HIT] = 243880
	Total_core_cache_stats_breakdown[INST_ACC_R][MISS] = 1221
	Total_core_cache_stats_breakdown[INST_ACC_R][RESERVATION_FAIL] = 4140
Shader 0 warp_id issue ditsribution:
warp_id:
0, 1, 2, 3, 4, 5, 6, 7, 8, 9, 10, 11, 12, 13, 14, 15, 16, 17, 18, 19, 20, 21, 22, 23, 24, 25, 26, 27, 28, 29, 30, 31, 32, 33, 34, 35, 36, 37, 38, 39, 40, 41, 42, 43, 44, 45, 46, 47, 
distro:
874, 874, 874, 874, 874, 845, 860, 874, 874, 874, 874, 845, 874, 874, 874, 874, 874, 845, 408, 437, 437, 437, 437, 437, 437, 437, 437, 437, 437, 437, 437, 437, 437, 437, 437, 408, 437, 437, 437, 437, 437, 437, 437, 437, 437, 437, 437, 408, 
gpgpu_n_tot_thrd_icount = 13976224
gpgpu_n_tot_w_icount = 436757
gpgpu_n_stall_shd_mem = 117580
gpgpu_n_mem_read_local = 0
gpgpu_n_mem_write_local = 0
gpgpu_n_mem_read_global = 4859
gpgpu_n_mem_write_global = 1860
gpgpu_n_mem_texture = 0
gpgpu_n_mem_const = 45
gpgpu_n_load_insn  = 1447992
gpgpu_n_store_insn = 28392
gpgpu_n_shmem_insn = 0
gpgpu_n_tex_insn = 0
gpgpu_n_const_mem_insn = 709800
gpgpu_n_param_mem_insn = 85176
gpgpu_n_shmem_bkconflict = 0
gpgpu_n_cache_bkconflict = 0
gpgpu_n_intrawarp_mshr_merge = 0
gpgpu_n_cmem_portconflict = 5136
gpgpu_stall_shd_mem[c_mem][bk_conf] = 5136
gpgpu_stall_shd_mem[c_mem][mshr_rc] = 0
gpgpu_stall_shd_mem[c_mem][icnt_rc] = 0
gpgpu_stall_shd_mem[c_mem][data_port_stall] = 0
gpgpu_stall_shd_mem[t_mem][mshr_rc] = 0
gpgpu_stall_shd_mem[t_mem][icnt_rc] = 0
gpgpu_stall_shd_mem[t_mem][data_port_stall] = 0
gpgpu_stall_shd_mem[s_mem][bk_conf] = 0
gpgpu_stall_shd_mem[gl_mem][bk_conf] = 0
gpgpu_stall_shd_mem[gl_mem][coal_stall] = 112444
gpgpu_stall_shd_mem[gl_mem][data_port_stall] = 0
gpgpu_stall_shd_mem[g_mem_ld][mshr_rc] = 0
gpgpu_stall_shd_mem[g_mem_ld][icnt_rc] = 0
gpgpu_stall_shd_mem[g_mem_ld][wb_icnt_rc] = 0
gpgpu_stall_shd_mem[g_mem_ld][wb_rsrv_fail] = 0
gpgpu_stall_shd_mem[g_mem_st][mshr_rc] = 0
gpgpu_stall_shd_mem[g_mem_st][icnt_rc] = 0
gpgpu_stall_shd_mem[g_mem_st][wb_icnt_rc] = 0
gpgpu_stall_shd_mem[g_mem_st][wb_rsrv_fail] = 0
gpgpu_stall_shd_mem[l_mem_ld][mshr_rc] = 0
gpgpu_stall_shd_mem[l_mem_ld][icnt_rc] = 0
gpgpu_stall_shd_mem[l_mem_ld][wb_icnt_rc] = 0
gpgpu_stall_shd_mem[l_mem_ld][wb_rsrv_fail] = 0
gpgpu_stall_shd_mem[l_mem_st][mshr_rc] = 0
gpgpu_stall_shd_mem[l_mem_st][icnt_rc] = 0
gpgpu_stall_shd_mem[l_mem_ld][wb_icnt_rc] = 0
gpgpu_stall_shd_mem[l_mem_ld][wb_rsrv_fail] = 0
gpu_reg_bank_conflict_stalls = 0
Warp Occupancy Distribution:
Stall:87581	W0_Idle:22876	W0_Scoreboard:42380	W1:1617	W2:1706	W3:1602	W4:1573	W5:1910	W6:2148	W7:2029	W8:1839	W9:69677	W10:1230	W11:880	W12:982	W13:1064	W14:1298	W15:978	W16:903	W17:828	W18:938	W19:914	W20:652	W21:625	W22:705	W23:1064	W24:1036	W25:1062	W26:1332	W27:1100	W28:1093	W29:981	W30:664	W31:754	W32:331573
traffic_breakdown_coretomem[CONST_ACC_R] = 360 {8:45,}
traffic_breakdown_coretomem[GLOBAL_ACC_R] = 38872 {8:4859,}
traffic_breakdown_coretomem[GLOBAL_ACC_W] = 172800 {40:499,72:504,136:857,}
traffic_breakdown_coretomem[INST_ACC_R] = 840 {8:105,}
traffic_breakdown_memtocore[CONST_ACC_R] = 3240 {72:45,}
traffic_breakdown_memtocore[GLOBAL_ACC_R] = 660824 {136:4859,}
traffic_breakdown_memtocore[GLOBAL_ACC_W] = 14880 {8:1860,}
traffic_breakdown_memtocore[INST_ACC_R] = 14280 {136:105,}
maxmrqlatency = 235 
maxdqlatency = 0 
maxmflatency = 670 
averagemflatency = 263 
max_icnt2mem_latency = 404 
max_icnt2sh_latency = 20939 
mrq_lat_table:1178 	304 	152 	252 	319 	265 	164 	35 	0 	0 	0 	0 	0 	0 	0 	0 	0 	0 	0 	0 	0 	0 	0 	0 	0 	0 	0 	0 	0 	0 	0 	0 	
dq_lat_table:0 	0 	0 	0 	0 	0 	0 	0 	0 	0 	0 	0 	0 	0 	0 	0 	0 	0 	0 	0 	0 	0 	0 	0 	0 	0 	0 	0 	0 	0 	0 	0 	
mf_lat_table:0 	0 	0 	0 	0 	0 	0 	3530 	2935 	299 	0 	0 	0 	0 	0 	0 	0 	0 	0 	0 	0 	0 	0 	0 	0 	0 	0 	0 	0 	0 	0 	0 	
icnt2mem_lat_table:0 	0 	0 	4409 	1202 	522 	385 	326 	25 	0 	0 	0 	0 	0 	0 	0 	0 	0 	0 	0 	0 	0 	0 	0 	
icnt2sh_lat_table:0 	0 	0 	1181 	2748 	957 	18 	0 	0 	0 	0 	0 	0 	1330 	530 	0 	0 	0 	0 	0 	0 	0 	0 	0 	
mf_lat_pw_table:0 	0 	0 	0 	0 	0 	0 	34 	6 	0 	0 	0 	0 	0 	0 	0 	0 	0 	0 	0 	0 	0 	0 	0 	0 	0 	0 	0 	0 	0 	0 	0 	
maximum concurrent accesses to same row:
dram[0]:         1         0         0         0         0         0         0         0         0         0         0         0         0         0         0         0 
dram[1]:         1         0         0         0         0         0         0         0         0         0         0         0         0         0         0         0 
dram[2]:         0         0         0         0         0         0         0         0         0         0         0         0         0         0         0         0 
dram[3]:         0         0         0         0         0         0         0         0         0         0         0         0         0         0         0         0 
dram[4]:         0         0         0         0         0         0         0         0         0         0         0         0         0         0         0         0 
dram[5]:         0         0         0         0         0         0         0         0         0         0         0         0         0         0         0         0 
maximum service time to same row:
dram[0]:       350         0         0         0      1532      1563      2006      2040      2784       841     11988     11663     13481     13535         0         0 
dram[1]:      2062         0         0         0      1551      1569      2057      1885      2910     11838     11916     11815     13696     13713         0         0 
dram[2]:      9722         0         0         0      1549      1543      2012      1988      2291     11775     11913     11632     13254     13832         0         0 
dram[3]:     10884         0         0         0      1546      1537      1793      1990      2241     11541     11928     11868     13252     13916         0         0 
dram[4]:         0         0         0         0      1541      1538      2063      1960       847     11550     11612     11865     13344     13515         0         0 
dram[5]:         0         0         0         0      1569      1534      2012      2056       851     11644     11606     11988     13541     13509         0         0 
average row accesses per activate:
dram[0]:  1.000000      -nan      -nan      -nan 10.000000 10.000000 32.000000 32.000000 51.000000 49.000000 68.000000 67.000000 65.000000 62.000000      -nan      -nan 
dram[1]:  3.000000      -nan      -nan      -nan 10.000000 10.000000 32.000000 32.000000 53.000000 55.000000 70.000000 65.000000 61.000000 56.000000      -nan      -nan 
dram[2]:  2.000000      -nan      -nan      -nan 10.000000 12.000000 32.000000 32.000000 49.000000 52.000000 69.000000 66.000000 61.000000 58.000000      -nan      -nan 
dram[3]:  1.000000      -nan      -nan      -nan 10.000000 12.000000 32.000000 32.000000 51.000000 53.000000 66.000000 66.000000 61.000000 57.000000      -nan      -nan 
dram[4]:      -nan      -nan      -nan      -nan 10.000000 12.000000 32.000000 32.000000 49.000000 55.000000 67.000000 67.000000 65.000000 58.000000      -nan      -nan 
dram[5]:      -nan      -nan      -nan      -nan 10.000000 12.000000 32.000000 32.000000 49.000000 54.000000 70.000000 65.000000 61.000000 57.000000      -nan      -nan 
average row locality = 2669/66 = 40.439392
number of total memory accesses made:
dram[0]:         0         0         0         0         0         0         0         0         0         0         0         0         0         0         0         0 
dram[1]:         0         0         0         0         0         0         0         0         0         0         0         0         0         0         0         0 
dram[2]:         0         0         0         0         0         0         0         0         0         0         0         0         0         0         0         0 
dram[3]:         0         0         0         0         0         0         0         0         0         0         0         0         0         0         0         0 
dram[4]:         0         0         0         0         0         0         0         0         0         0         0         0         0         0         0         0 
dram[5]:         0         0         0         0         0         0         0         0         0         0         0         0         0         0         0         0 
total accesses: 0
min_bank_accesses = 0!
min_chip_accesses = 0!
number of total read accesses:
dram[0]:         3         0         0         0        10        10        32        32        32        31        32        32        30        30         0         0 
dram[1]:         3         0         0         0        10        10        32        32        32        32        32        32        30        28         0         0 
dram[2]:         2         0         0         0        10        12        32        32        32        32        32        32        30        28         0         0 
dram[3]:         1         0         0         0        10        12        32        32        32        32        32        32        30        28         0         0 
dram[4]:         0         0         0         0        10        12        32        32        32        32        32        32        30        28         0         0 
dram[5]:         0         0         0         0        10        12        32        32        32        32        32        32        30        28         0         0 
total reads: 1638
min_bank_accesses = 0!
chip skew: 274/272 = 1.01
number of total write accesses:
dram[0]:         0         0         0         0         0         0         0         0        19        18        36        35        35        32         0         0 
dram[1]:         0         0         0         0         0         0         0         0        21        23        38        33        31        28         0         0 
dram[2]:         0         0         0         0         0         0         0         0        17        20        37        34        31        30         0         0 
dram[3]:         0         0         0         0         0         0         0         0        19        21        34        34        31        29         0         0 
dram[4]:         0         0         0         0         0         0         0         0        17        23        35        35        35        30         0         0 
dram[5]:         0         0         0         0         0         0         0         0        17        22        38        33        31        29         0         0 
total reads: 1031
min_bank_accesses = 0!
chip skew: 175/168 = 1.04
average mf latency per bank:
dram[0]:       1300    none      none      none        2473      2511      1895      2250       601       604       225       223       208       208    none      none  
dram[1]:       1980    none      none      none        3017      1972      2531      1773       615       530       240       224       210       207    none      none  
dram[2]:          0    none      none      none        2528      2397      2336      1748       657       528       230       217       212       210    none      none  
dram[3]:          0    none      none      none        2176      2356      1701      1626       602       528       243       216       211       202    none      none  
dram[4]:     none      none      none      none        2763      2098      2196      1848       727       532       229       211       205       204    none      none  
dram[5]:     none      none      none      none        2186      2418      1872      2284       631       522       216       219       214       201    none      none  
maximum mf latency per bank:
dram[0]:        278         0         0         0       549       611       524       584       520       344       359       390       344       378         0         0
dram[1]:        273         0         0         0       640       463       627       478       640       501       402       357       352       288         0         0
dram[2]:          0         0         0         0       539       552       608       554       619       444       335       381       334       318         0         0
dram[3]:          0         0         0         0       546       593       579       508       512       405       423       365       325       307         0         0
dram[4]:          0         0         0         0       632       573       670       431       668       375       345       333       326       317         0         0
dram[5]:          0         0         0         0       579       616       508       552       333       398       332       385       297       312         0         0

Number of Memory Banks Accessed per Memory Operation per Warp (from 0):
0	0	0	0	0	0	0	0	0	0	0	0	0	0	0	0	0	0	0	0	0	0	0	0	0	0	0	0	0	0	0	0	0	0	0	0	0	0	0	0	0	0	0	0	0	0	0	0	0	0	0	0	0	0	0	0	0	0	0	0	0	0	0	0	0	0	0	0	0	0	0	0	0	0	0	0	0	0	0	0	0	0	0	0	0	0	0	0	0	0	0	0	0	0	0	0	
Average # of Memory Banks Accessed per Memory Operation per Warp=-nan

position of mrq chosen
0	0	0	0	0	0	0	0	0	0	0	0	0	0	0	0	

average position of mrq chosen = -nan
Memory Partition 0: 
Cache L2_bank_000:
MSHR contents

Cache L2_bank_001:
MSHR contents

In Dram Latency Queue (total = 0): 
DRAM[0]: 16 bks, busW=4 BL=8 CL=12, tRRD=2 tCCD=6, tRCD=12 tRAS=28 tRP=12 tRC=40
n_cmd=27640 n_nop=26815 n_act=13 n_pre=2 n_req=449 n_rd=548 n_write=262 bw_util=0.05861
n_activity=4989 dram_eff=0.3247
bk0: 6a 27563i bk1: 0a 27634i bk2: 0a 27639i bk3: 0a 27641i bk4: 20a 27579i bk5: 20a 27549i bk6: 64a 27457i bk7: 64a 27419i bk8: 64a 26940i bk9: 62a 27050i bk10: 64a 26446i bk11: 64a 26542i bk12: 60a 26889i bk13: 60a 26843i bk14: 0a 27636i bk15: 0a 27636i 
dram_util_bins: 0 0 0 0 0 0 0 0 0 0
dram_eff_bins: 0 0 0 0 0 0 0 0 0 0
mrqq: max=16 avg=0.452569
Memory Partition 1: 
Cache L2_bank_002:
MSHR contents

Cache L2_bank_003:
MSHR contents

In Dram Latency Queue (total = 0): 
DRAM[1]: 16 bks, busW=4 BL=8 CL=12, tRRD=2 tCCD=6, tRCD=12 tRAS=28 tRP=12 tRC=40
n_cmd=27640 n_nop=26819 n_act=12 n_pre=1 n_req=447 n_rd=546 n_write=262 bw_util=0.05847
n_activity=4723 dram_eff=0.3422
bk0: 6a 27588i bk1: 0a 27638i bk2: 0a 27639i bk3: 0a 27642i bk4: 20a 27580i bk5: 20a 27576i bk6: 64a 27472i bk7: 64a 27382i bk8: 64a 26975i bk9: 64a 26826i bk10: 64a 26438i bk11: 64a 26412i bk12: 60a 26963i bk13: 56a 26926i bk14: 0a 27635i bk15: 0a 27636i 
dram_util_bins: 0 0 0 0 0 0 0 0 0 0
dram_eff_bins: 0 0 0 0 0 0 0 0 0 0
mrqq: max=16 avg=0.485564
Memory Partition 2: 
Cache L2_bank_004:
MSHR contents

Cache L2_bank_005:
MSHR contents

In Dram Latency Queue (total = 0): 
DRAM[2]: 16 bks, busW=4 BL=8 CL=12, tRRD=2 tCCD=6, tRCD=12 tRAS=28 tRP=12 tRC=40
n_cmd=27640 n_nop=26823 n_act=11 n_pre=0 n_req=443 n_rd=548 n_write=258 bw_util=0.05832
n_activity=4854 dram_eff=0.3321
bk0: 4a 27618i bk1: 0a 27639i bk2: 0a 27640i bk3: 0a 27644i bk4: 20a 27579i bk5: 24a 27548i bk6: 64a 27457i bk7: 64a 27420i bk8: 64a 26968i bk9: 64a 26922i bk10: 64a 26465i bk11: 64a 26566i bk12: 60a 26976i bk13: 56a 26939i bk14: 0a 27637i bk15: 0a 27638i 
dram_util_bins: 0 0 0 0 0 0 0 0 0 0
dram_eff_bins: 0 0 0 0 0 0 0 0 0 0
mrqq: max=15 avg=0.293886
Memory Partition 3: 
Cache L2_bank_006:
MSHR contents

Cache L2_bank_007:
MSHR contents

In Dram Latency Queue (total = 0): 
[...]
traffic_breakdown_coretomem[CONST_ACC_R] = 600 {8:75,}
traffic_breakdown_coretomem[GLOBAL_ACC_R] = 1152432 {8:144054,}
traffic_breakdown_coretomem[GLOBAL_ACC_W] = 517200 {40:4279,72:1204,136:1907,}
traffic_breakdown_coretomem[INST_ACC_R] = 3000 {8:375,}
traffic_breakdown_memtocore[CONST_ACC_R] = 5400 {72:75,}
traffic_breakdown_memtocore[GLOBAL_ACC_R] = 19591344 {136:144054,}
traffic_breakdown_memtocore[GLOBAL_ACC_W] = 59120 {8:7390,}
traffic_breakdown_memtocore[INST_ACC_R] = 51000 {136:375,}
maxmrqlatency = 235 
maxdqlatency = 0 
maxmflatency = 670 
averagemflatency = 154 
max_icnt2mem_latency = 404 
max_icnt2sh_latency = 2079562 
mrq_lat_table:6975 	712 	238 	500 	571 	328 	231 	59 	0 	0 	0 	0 	0 	0 	0 	0 	0 	0 	0 	0 	0 	0 	0 	0 	0 	0 	0 	0 	0 	0 	0 	0 	
dq_lat_table:0 	0 	0 	0 	0 	0 	0 	0 	0 	0 	0 	0 	0 	0 	0 	0 	0 	0 	0 	0 	0 	0 	0 	0 	0 	0 	0 	0 	0 	0 	0 	0 	
mf_lat_table:0 	0 	0 	0 	0 	0 	0 	143067 	8152 	300 	0 	0 	0 	0 	0 	0 	0 	0 	0 	0 	0 	0 	0 	0 	0 	0 	0 	0 	0 	0 	0 	0 	
icnt2mem_lat_table:0 	0 	0 	148589 	1822 	708 	411 	339 	25 	0 	0 	0 	0 	0 	0 	0 	0 	0 	0 	0 	0 	0 	0 	0 	
icnt2sh_lat_table:0 	0 	0 	130780 	11618 	1708 	23 	0 	0 	0 	0 	0 	0 	1330 	740 	860 	1380 	120 	391 	809 	1760 	0 	0 	0 	
mf_lat_pw_table:0 	0 	0 	0 	0 	0 	0 	4146 	12 	0 	0 	0 	0 	0 	0 	0 	0 	0 	0 	0 	0 	0 	0 	0 	0 	0 	0 	0 	0 	0 	0 	0 	
maximum concurrent accesses to same row:
dram[0]:        68        66        69        67        30        26        32        32        51        49        68        67        67        64        57        51 
dram[1]:        74        68        70        68        29        28        32        32        53        55        70        65        63        60        57        54 
dram[2]:        73        72        68        66        34        25        32        32        49        52        69        66        63        62        55        56 
dram[3]:        72        69        67        66        28        25        32        32        51        53        66        66        63        61        54        58 
dram[4]:        69        67        67        69        27        26        32        32        49        55        67        67        67        62        56        58 
dram[5]:        70        71        66        70        27        26        32        32        49        54        70        65        63        61        53        59 
maximum service time to same row:
dram[0]:     18204     10900     50672     50628     80300     79555      4808      4897    499402    633195     11988     11663     13481     13535       282       288 
dram[1]:     19226    244507     51094     50894     79774     79543      4748      6584    499949   1564959     11916     11815     13696    314662       288       282 
dram[2]:     10107     83607     50888     51996     79438     79339      4872      6631    534269   1010314     11913     11632     13254    319147      1494       438 
dram[3]:     10884    238628     50560     52653     79519     79339      5011      6657   1551958    531602     11928     11868     13252    322619       285       285 
dram[4]:     18824     21679     50477     51197     79463     79844      4878      6569   1056662    566385     11612     11865     13344     13515       285       285 
dram[5]:     11197     23172     50594     51769     79952     79863      4931      5360    534031    823758     11606     11988     13541     13509      1150       304 
average row accesses per activate:
dram[0]: 17.333334 33.333332 50.500000 49.500000  3.333333  3.142857  2.526316  2.461539  3.263158  3.771429 50.000000 49.500000 33.333332 48.000000 44.500000 41.500000 
dram[1]: 27.500000 10.600000 51.000000 50.000000  3.296296  3.068965  2.526316  2.909091  3.757576  4.062500 51.000000 48.500000 47.500000 31.333334 44.500000 43.000000 
dram[2]: 35.666668 18.333334 50.000000 49.000000  3.576923  2.870968  2.594594  2.742857  3.263158  4.166667 50.500000 49.000000 47.500000 32.000000 43.500000 44.000000 
dram[3]: 35.333332 13.375000 49.500000 49.000000  3.259259  2.966667  2.526316  2.909091  4.466667  3.906250 49.000000 49.000000 47.500000 31.666666 43.000000 45.000000 
dram[4]: 34.333332 33.666668 49.500000 50.500000  3.034483  2.966667  2.594594  2.823529  3.435897  3.735294 49.500000 49.500000 49.500000 32.000000 44.000000 45.000000 
dram[5]: 34.666668 35.000000 49.000000 51.000000  3.259259  3.178571  2.594594  2.823529  3.435897  3.628572 51.000000 48.500000 47.500000 31.666666 42.500000 45.500000 
average row locality = 9614/1344 = 7.153274
number of total memory accesses made:
dram[0]:         0         0         0         0         0         0         0         0         0         0         0         0         0         0         0         0 
dram[1]:         0         0         0         0         0         0         0         0         0         0         0         0         0         0         0         0 
dram[2]:         0         0         0         0         0         0         0         0         0         0         0         0         0         0         0         0 
dram[3]:         0         0         0         0         0         0         0         0         0         0         0         0         0         0         0         0 
dram[4]:         0         0         0         0         0         0         0         0         0         0         0         0         0         0         0         0 
dram[5]:         0         0         0         0         0         0         0         0         0         0         0         0         0         0         0         0 
total accesses: 0
min_bank_accesses = 0!
min_chip_accesses = 0!
number of total read accesses:
dram[0]:        68        66        64        64        74        74        96        96        94        93        64        64        64        64        64        64 
dram[1]:        68        68        64        64        74        74        96        96        94        93        64        64        64        64        64        64 
dram[2]:        66        68        64        64        74        76        96        96        94        92        64        64        64        64        64        64 
dram[3]:        66        68        64        64        74        76        96        96        94        92        64        64        64        64        64        64 
dram[4]:        66        66        64        64        74        76        96        96        94        92        64        64        64        64        64        64 
dram[5]:        66        66        64        64        74        76        96        96        94        92        64        64        64        64        64        64 
total reads: 7040
bank skew: 96/64 = 1.50
chip skew: 1175/1172 = 1.00
number of total write accesses:
dram[0]:        36        34        37        35        16        14         0         0        30        39        36        35        36        32        25        19 
dram[1]:        42        38        38        36        15        15         0         0        30        37        38        33        31        30        25        22 
dram[2]:        41        42        36        34        19        13         0         0        30        33        37        34        31        32        23        24 
dram[3]:        40        39        35        34        14        13         0         0        40        33        34        34        31        31        22        26 
dram[4]:        37        35        35        37        14        13         0         0        40        35        35        35        35        32        24        26 
dram[5]:        38        39        34        38        14        13         0         0        40        35        38        33        31        31        21        27 
total reads: 2574
min_bank_accesses = 0!
chip skew: 433/424 = 1.02
average mf latency per bank:
dram[0]:       2060      2125      2053      2098      2894      3048      3265      3405      2536      2422      2045      2092      2098      2165      2439      2530
dram[1]:       2003      1985      2068      2099      3004      2956      3498      3207      2540      2478      2044      2091      2207      2257      2420      2472
dram[2]:       1976      1938      2147      2142      2821      2972      3412      3232      2489      2487      2058      2134      2235      2190      2439      2378
dram[3]:       1991      1994      2107      2107      2943      3020      3234      3213      2449      2491      2131      2106      2190      2199      2533      2340
dram[4]:       2032      2068      2137      2116      3038      3006      3369      3231      2486      2490      2096      2055      2140      2206      2440      2389
dram[5]:       2042      2029      2147      2065      2981      3007      3276      3411      2404      2390      2013      2121      2221      2230      2505      2359
maximum mf latency per bank:
dram[0]:        289       325       277       277       549       611       524       584       520       373       359       390       344       378       468       345
dram[1]:        278       487       325       457       640       497       627       511       640       513       402       357       352       483       429       487
dram[2]:        343       289       325       302       539       552       608       554       619       444       335       381       345       318       389       375
dram[3]:        337       311       277       280       546       593       579       508       512       405       423       365       325       307       365       401
dram[4]:        277       277       361       325       632       573       670       431       668       399       345       333       326       345       336       456
dram[5]:        295       325       331       313       579       616       508       552       365       398       351       385       369       312       359       451

Number of Memory Banks Accessed per Memory Operation per Warp (from 0):
0	0	0	0	0	0	0	0	0	0	0	0	0	0	0	0	0	0	0	0	0	0	0	0	0	0	0	0	0	0	0	0	0	0	0	0	0	0	0	0	0	0	0	0	0	0	0	0	0	0	0	0	0	0	0	0	0	0	0	0	0	0	0	0	0	0	0	0	0	0	0	0	0	0	0	0	0	0	0	0	0	0	0	0	0	0	0	0	0	0	0	0	0	0	0	0	
Average # of Memory Banks Accessed per Memory Operation per Warp=-nan

position of mrq chosen
0	0	0	0	0	0	0	0	0	0	0	0	0	0	0	0	

average position of mrq chosen = -nan
Memory Partition 0: 
Cache L2_bank_000:
MSHR contents

Cache L2_bank_001:
MSHR contents

In Dram Latency Queue (total = 0): 
DRAM[0]: 16 bks, busW=4 BL=8 CL=12, tRRD=2 tCCD=6, tRCD=12 tRAS=28 tRP=12 tRC=40
n_cmd=2745019 n_nop=2741599 n_act=231 n_pre=215 n_req=1597 n_rd=2346 n_write=628 bw_util=0.002167
n_activity=27334 dram_eff=0.2176
bk0: 136a 2744168i bk1: 132a 2744267i bk2: 128a 2744295i bk3: 128a 2744317i bk4: 148a 2743952i bk5: 148a 2743870i bk6: 192a 2743676i bk7: 192a 2743541i bk8: 188a 2743008i bk9: 186a 2743078i bk10: 128a 2743551i bk11: 128a 2743681i bk12: 128a 2743999i bk13: 128a 2744022i bk14: 128a 2744300i bk15: 128a 2744350i 
dram_util_bins: 0 0 0 0 0 0 0 0 0 0
dram_eff_bins: 0 0 0 0 0 0 0 0 0 0
mrqq: max=16 avg=0.00650924
Memory Partition 1: 
Cache L2_bank_002:
MSHR contents

Cache L2_bank_003:
MSHR contents

In Dram Latency Queue (total = 0): 
DRAM[1]: 16 bks, busW=4 BL=8 CL=12, tRRD=2 tCCD=6, tRCD=12 tRAS=28 tRP=12 tRC=40
n_cmd=2745019 n_nop=2741600 n_act=224 n_pre=208 n_req=1605 n_rd=2350 n_write=637 bw_util=0.002176
n_activity=27035 dram_eff=0.221
bk0: 136a 2744180i bk1: 136a 2744113i bk2: 128a 2744313i bk3: 128a 2744375i bk4: 148a 2743884i bk5: 148a 2743821i bk6: 192a 2743689i bk7: 192a 2743635i bk8: 188a 2743171i bk9: 186a 2742957i bk10: 128a 2743541i bk11: 128a 2743566i bk12: 128a 2744135i bk13: 128a 2744028i bk14: 128a 2744324i bk15: 128a 2744340i 
dram_util_bins: 0 0 0 0 0 0 0 0 0 0
dram_eff_bins: 0 0 0 0 0 0 0 0 0 0
mrqq: max=16 avg=0.00679048
Memory Partition 2: 
Cache L2_bank_004:
MSHR contents

Cache L2_bank_005:
MSHR contents

In Dram Latency Queue (total = 0): 
DRAM[2]: 16 bks, busW=4 BL=8 CL=12, tRRD=2 tCCD=6, tRCD=12 tRAS=28 tRP=12 tRC=40
n_cmd=2745019 n_nop=2741606 n_act=223 n_pre=207 n_req=1603 n_rd=2348 n_write=635 bw_util=0.002173
n_activity=27431 dram_eff=0.2175
bk0: 132a 2744232i bk1: 136a 2744149i bk2: 128a 2744310i bk3: 128a 2744392i bk4: 148a 2743919i bk5: 152a 2743825i bk6: 192a 2743685i bk7: 192a 2743624i bk8: 188a 2743021i bk9: 184a 2743134i bk10: 128a 2743561i bk11: 128a 2743699i bk12: 128a 2744118i bk13: 128a 2744074i bk14: 128a 2744347i bk15: 128a 2744347i 
dram_util_bins: 0 0 0 0 0 0 0 0 0 0
dram_eff_bins: 0 0 0 0 0 0 0 0 0 0
mrqq: max=16 avg=0.00427247
Memory Partition 3: 
Cache L2_bank_006:
MSHR contents

Cache L2_bank_007:
MSHR contents

In Dram Latency Queue (total = 0): 
DRAM[3]: 16 bks, busW=4 BL=8 CL=12, tRRD=2 tCCD=6, tRCD=12 tRAS=28 tRP=12 tRC=40
n_cmd=2745019 n_nop=2741641 n_act=218 n_pre=202 n_req=1600 n_rd=2348 n_write=610 bw_util=0.002155
n_activity=27063 dram_eff=0.2186
bk0: 132a 2744182i bk1: 136a 2744094i bk2: 128a 2744340i bk3: 128a 2744349i bk4: 148a 2743969i bk5: 152a 2743839i bk6: 192a 2743637i bk7: 192a 2743712i bk8: 188a 2743212i bk9: 184a 2743003i bk10: 128a 2743634i bk11: 128a 2743643i bk12: 128a 2744136i bk13: 128a 2744129i bk14: 128a 2744397i bk15: 128a 2744276i 
dram_util_bins: 0 0 0 0 0 0 0 0 0 0
dram_eff_bins: 0 0 0 0 0 0 0 0 0 0
mrqq: max=16 avg=0.00464733
Memory Partition 4: 
Cache L2_bank_008:
MSHR contents

Cache L2_bank_009:
MSHR contents

In Dram Latency Queue (total = 0): 
DRAM[4]: 16 bks, busW=4 BL=8 CL=12, tRRD=2 tCCD=6, tRCD=12 tRAS=28 tRP=12 tRC=40
n_cmd=2745019 n_nop=2741607 n_act=226 n_pre=210 n_req=1605 n_rd=2344 n_write=632 bw_util=0.002168
n_activity=27477 dram_eff=0.2166
bk0: 132a 2744243i bk1: 132a 2744290i bk2: 128a 2744369i bk3: 128a 2744343i bk4: 148a 2743909i bk5: 152a 2743832i bk6: 192a 2743695i bk7: 192a 2743756i bk8: 188a 2742948i bk9: 184a 2743031i bk10: 128a 2743714i bk11: 128a 2743675i bk12: 128a 2744143i bk13: 128a 2744095i bk14: 128a 2744383i bk15: 128a 2744266i 
dram_util_bins: 0 0 0 0 0 0 0 0 0 0
dram_eff_bins: 0 0 0 0 0 0 0 0 0 0
mrqq: max=13 avg=0.00406045
Memory Partition 5: 
Cache L2_bank_010:
MSHR contents

Cache L2_bank_011:
MSHR contents

In Dram Latency Queue (total = 0): 
DRAM[5]: 16 bks, busW=4 BL=8 CL=12, tRRD=2 tCCD=6, tRCD=12 tRAS=28 tRP=12 tRC=40
n_cmd=2745019 n_nop=2741619 n_act=223 n_pre=207 n_req=1604 n_rd=2344 n_write=626 bw_util=0.002164
n_activity=27034 dram_eff=0.2197
bk0: 132a 2744241i bk1: 132a 2744224i bk2: 128a 2744351i bk3: 128a 2744365i bk4: 148a 2743978i bk5: 152a 2743888i bk6: 192a 2743690i bk7: 192a 2743691i bk8: 188a 2742950i bk9: 184a 2742910i bk10: 128a 2743613i bk11: 128a 2743691i bk12: 128a 2744065i bk13: 128a 2744117i bk14: 128a 2744360i bk15: 128a 2744297i 
dram_util_bins: 0 0 0 0 0 0 0 0 0 0
dram_eff_bins: 0 0 0 0 0 0 0 0 0 0
mrqq: max=16 avg=0.00436281

========= L2 cache stats =========
L2_cache_bank[0]: Access = 12603, Miss = 588, Miss_rate = 0.047, Pending_hits = 157, Reservation_fails = 819
L2_cache_bank[1]: Access = 12694, Miss = 585, Miss_rate = 0.046, Pending_hits = 142, Reservation_fails = 1089
L2_cache_bank[2]: Access = 12652, Miss = 588, Miss_rate = 0.046, Pending_hits = 155, Reservation_fails = 1139
L2_cache_bank[3]: Access = 12653, Miss = 587, Miss_rate = 0.046, Pending_hits = 157, Reservation_fails = 734
L2_cache_bank[4]: Access = 12612, Miss = 586, Miss_rate = 0.046, Pending_hits = 146, Reservation_fails = 585
L2_cache_bank[5]: Access = 12616, Miss = 588, Miss_rate = 0.047, Pending_hits = 156, Reservation_fails = 885
L2_cache_bank[6]: Access = 12696, Miss = 586, Miss_rate = 0.046, Pending_hits = 149, Reservation_fails = 689
L2_cache_bank[7]: Access = 12629, Miss = 588, Miss_rate = 0.047, Pending_hits = 166, Reservation_fails = 486
L2_cache_bank[8]: Access = 12719, Miss = 586, Miss_rate = 0.046, Pending_hits = 171, Reservation_fails = 935
L2_cache_bank[9]: Access = 12670, Miss = 586, Miss_rate = 0.046, Pending_hits = 145, Reservation_fails = 634
L2_cache_bank[10]: Access = 12710, Miss = 586, Miss_rate = 0.046, Pending_hits = 165, Reservation_fails = 729
L2_cache_bank[11]: Access = 12640, Miss = 586, Miss_rate = 0.046, Pending_hits = 143, Reservation_fails = 697
L2_total_cache_accesses = 151894
L2_total_cache_misses = 7040
L2_total_cache_miss_rate = 0.0463
L2_total_cache_pending_hits = 1852
L2_total_cache_reservation_fails = 9421
L2_total_cache_breakdown:
	L2_cache_stats_breakdown[GLOBAL_ACC_R][HIT] = 137747
	L2_cache_stats_breakdown[GLOBAL_ACC_R][HIT_RESERVED] = 1374
	L2_cache_stats_breakdown[GLOBAL_ACC_R][MISS] = 4933
	L2_cache_stats_breakdown[GLOBAL_ACC_R][RESERVATION_FAIL] = 7756
	L2_cache_stats_breakdown[CONST_ACC_R][HIT] = 63
	L2_cache_stats_breakdown[CONST_ACC_R][HIT_RESERVED] = 9
	L2_cache_stats_breakdown[CONST_ACC_R][MISS] = 3
	L2_cache_stats_breakdown[CONST_ACC_R][RESERVATION_FAIL] = 322
	L2_cache_stats_breakdown[GLOBAL_ACC_W][HIT] = 4889
	L2_cache_stats_breakdown[GLOBAL_ACC_W][HIT_RESERVED] = 422
	L2_cache_stats_breakdown[GLOBAL_ACC_W][MISS] = 2079
	L2_cache_stats_breakdown[GLOBAL_ACC_W][RESERVATION_FAIL] = 302
	L2_cache_stats_breakdown[INST_ACC_R][HIT] = 303
	L2_cache_stats_breakdown[INST_ACC_R][HIT_RESERVED] = 47
	L2_cache_stats_breakdown[INST_ACC_R][MISS] = 25
	L2_cache_stats_breakdown[INST_ACC_R][RESERVATION_FAIL] = 1041
L2_cache_data_port_util = 0.022
L2_cache_fill_port_util = 0.001

icnt_total_pkts_mem_to_simt=729760
icnt_total_pkts_simt_to_mem=166209
LD_mem_lat_dist  0 0 0 0 0 0 0 0 0 0 0 0 0 0 0 0 0 0 0 0 0 0 0 0 0 0 0
ST_mem_lat_dist  0 0 0 0 0 0 0 0 0 0 0 0 0 0 0 0 0 0 0 0 0 0 0 0 0 0 0
----------------------------Interconnect-DETAILS--------------------------------
Class 0:
Packet latency average = 10.8105
	minimum = 6
	maximum = 158
Network latency average = 9.81021
	minimum = 6
	maximum = 145
Slowest packet = 302044
Flit latency average = 7.91943
	minimum = 6
	maximum = 144
Slowest flit = 891463
Fragmentation average = 0
	minimum = 0
	maximum = 0
Injected packet rate average = 0.00517701
	minimum = 0.00412963 (at node 1)
	maximum = 0.0078104 (at node 16)
Accepted packet rate average = 0.00517701
	minimum = 0.00412963 (at node 1)
	maximum = 0.0078104 (at node 16)
Injected flit rate average = 0.0141345
	minimum = 0.00489272 (at node 1)
	maximum = 0.0298501 (at node 26)
Accepted flit rate average= 0.0141345
	minimum = 0.00439896 (at node 19)
	maximum = 0.0222192 (at node 10)
Injected packet length average = 2.73025
Accepted packet length average = 2.73025
Total in-flight flits = 0 (0 measured)
====== Overall Traffic Statistics ======
====== Traffic class 0 ======
Packet latency average = 11.627 (4 samples)
	minimum = 6 (4 samples)
	maximum = 112.25 (4 samples)
Network latency average = 10.5482 (4 samples)
	minimum = 6 (4 samples)
	maximum = 106.25 (4 samples)
Flit latency average = 8.7247 (4 samples)
	minimum = 6 (4 samples)
	maximum = 105 (4 samples)
Fragmentation average = 0 (4 samples)
	minimum = 0 (4 samples)
	maximum = 0 (4 samples)
Injected packet rate average = 0.0125248 (4 samples)
	minimum = 0.0103583 (4 samples)
	maximum = 0.0153665 (4 samples)
Accepted packet rate average = 0.0125248 (4 samples)
	minimum = 0.0103583 (4 samples)
	maximum = 0.0153665 (4 samples)
Injected flit rate average = 0.0356801 (4 samples)
	minimum = 0.0155875 (4 samples)
	maximum = 0.0640059 (4 samples)
Accepted flit rate average = 0.0356801 (4 samples)
	minimum = 0.0195008 (4 samples)
	maximum = 0.0552499 (4 samples)
Injected packet size average = 2.84876 (4 samples)
Accepted packet size average = 2.84876 (4 samples)
Hops average = 1 (4 samples)
----------------------------END-of-Interconnect-DETAILS-------------------------


gpgpu_simulation_time = 0 days, 0 hrs, 16 min, 8 sec (968 sec)
gpgpu_simulation_rate = 80940 (inst/sec)
gpgpu_simulation_rate = 2148 (cycle/sec)
7 2 1 0 4 1 4 9 6 9 0 6 9 0 1 5 9 7 3 4 9 6 6 5 4 0 7 4
