

        *** GPGPU-Sim Simulator Version 3.2.2  [build 0] ***


GPGPU-Sim PTX: simulation mode 0 (can change with PTX_SIM_MODE_FUNC environment variable:
               1=functional simulation only, 0=detailed performance simulator)
GPGPU-Sim: Configuration options:

-network_mode                           1 # Interconnection network mode
-inter_config_file   config_fermi_islip.icnt # Interconnection network config file
-gpgpu_ptx_use_cuobjdump                    1 # Use cuobjdump to extract ptx and sass from binaries
-gpgpu_experimental_lib_support                    0 # Try to extract code from cuda libraries [Broken because of unknown cudaGetExportTable]
-gpgpu_ptx_convert_to_ptxplus                    0 # Convert SASS (native ISA) to ptxplus and run ptxplus
-gpgpu_ptx_force_max_capability                   20 # Force maximum compute capability
-gpgpu_ptx_inst_debug_to_file                    0 # Dump executed instructions' debug information to file
-gpgpu_ptx_inst_debug_file       inst_debug.txt # Executed instructions' debug output file
-gpgpu_ptx_inst_debug_thread_uid                    1 # Thread UID for executed instructions' debug output
-gpgpu_simd_model                       1 # 1 = post-dominator
-gpgpu_shader_core_pipeline              1536:32 # shader core pipeline config, i.e., {<nthread>:<warpsize>}
-gpgpu_tex_cache:l1  4:128:24,L:R:m:N:L,F:128:4,128:2 # per-shader L1 texture cache  (READ-ONLY) config  {<nsets>:<bsize>:<assoc>,<rep>:<wr>:<alloc>:<wr_alloc>,<mshr>:<N>:<merge>,<mq>:<rf>}
-gpgpu_const_cache:l1 64:64:2,L:R:f:N:L,A:2:32,4 # per-shader L1 constant memory cache  (READ-ONLY) config  {<nsets>:<bsize>:<assoc>,<rep>:<wr>:<alloc>:<wr_alloc>,<mshr>:<N>:<merge>,<mq>} 
-gpgpu_cache:il1     4:128:4,L:R:f:N:L,A:2:32,4 # shader L1 instruction cache config  {<nsets>:<bsize>:<assoc>,<rep>:<wr>:<alloc>:<wr_alloc>,<mshr>:<N>:<merge>,<mq>} 
-gpgpu_cache:dl1     64:128:4,L:L:m:N:H,A:32:8,8 # per-shader L1 data cache config  {<nsets>:<bsize>:<assoc>,<rep>:<wr>:<alloc>:<wr_alloc>,<mshr>:<N>:<merge>,<mq> | none}
-gpgpu_cache:dl1PrefL1                 none # per-shader L1 data cache config  {<nsets>:<bsize>:<assoc>,<rep>:<wr>:<alloc>:<wr_alloc>,<mshr>:<N>:<merge>,<mq> | none}
-gpgpu_cache:dl1PreShared                 none # per-shader L1 data cache config  {<nsets>:<bsize>:<assoc>,<rep>:<wr>:<alloc>:<wr_alloc>,<mshr>:<N>:<merge>,<mq> | none}
-gmem_skip_L1D                          0 # global memory access skip L1D cache (implements -Xptxas -dlcm=cg, default=no skip)
-gpgpu_perfect_mem                      0 # enable perfect memory mode (no cache miss)
-n_regfile_gating_group                    4 # group of lanes that should be read/written together)
-gpgpu_clock_gated_reg_file                    0 # enable clock gated reg file for power calculations
-gpgpu_clock_gated_lanes                    0 # enable clock gated lanes for power calculations
-gpgpu_shader_registers                32768 # Number of registers per shader core. Limits number of concurrent CTAs. (default 8192)
-gpgpu_shader_cta                       8 # Maximum number of concurrent CTAs in shader (default 8)
-gpgpu_num_cta_barriers                   16 # Maximum number of named barriers per CTA (default 16)
-gpgpu_n_clusters                      15 # number of processing clusters
-gpgpu_n_cores_per_cluster                    1 # number of simd cores per cluster
-gpgpu_n_cluster_ejection_buffer_size                    8 # number of packets in ejection buffer
-gpgpu_n_ldst_response_buffer_size                    2 # number of response packets in ld/st unit ejection buffer
-gpgpu_shmem_size                   16384 # Size of shared memory per shader core (default 16kB)
-gpgpu_shmem_size                   49152 # Size of shared memory per shader core (default 16kB)
-gpgpu_shmem_size_PrefL1                16384 # Size of shared memory per shader core (default 16kB)
-gpgpu_shmem_size_PrefShared                16384 # Size of shared memory per shader core (default 16kB)
-gpgpu_shmem_num_banks                   32 # Number of banks in the shared memory in each shader core (default 16)
-gpgpu_shmem_limited_broadcast                    0 # Limit shared memory to do one broadcast per cycle (default on)
-gpgpu_shmem_warp_parts                    1 # Number of portions a warp is divided into for shared memory bank conflict check 
-gpgpu_warpdistro_shader                   -1 # Specify which shader core to collect the warp size distribution from
-gpgpu_warp_issue_shader                    0 # Specify which shader core to collect the warp issue distribution from
-gpgpu_local_mem_map                    1 # Mapping from local memory space address to simulated GPU physical address space (default = enabled)
-gpgpu_num_reg_banks                   16 # Number of register banks (default = 8)
-gpgpu_reg_bank_use_warp_id                    0 # Use warp ID in mapping registers to banks (default = off)
-gpgpu_operand_collector_num_units_sp                    6 # number of collector units (default = 4)
-gpgpu_operand_collector_num_units_sfu                    8 # number of collector units (default = 4)
-gpgpu_operand_collector_num_units_mem                    2 # number of collector units (default = 2)
-gpgpu_operand_collector_num_units_gen                    0 # number of collector units (default = 0)
-gpgpu_operand_collector_num_in_ports_sp                    2 # number of collector unit in ports (default = 1)
-gpgpu_operand_collector_num_in_ports_sfu                    1 # number of collector unit in ports (default = 1)
-gpgpu_operand_collector_num_in_ports_mem                    1 # number of collector unit in ports (default = 1)
-gpgpu_operand_collector_num_in_ports_gen                    0 # number of collector unit in ports (default = 0)
-gpgpu_operand_collector_num_out_ports_sp                    2 # number of collector unit in ports (default = 1)
-gpgpu_operand_collector_num_out_ports_sfu                    1 # number of collector unit in ports (default = 1)
-gpgpu_operand_collector_num_out_ports_mem                    1 # number of collector unit in ports (default = 1)
-gpgpu_operand_collector_num_out_ports_gen                    0 # number of collector unit in ports (default = 0)
-gpgpu_coalesce_arch                   13 # Coalescing arch (default = 13, anything else is off for now)
-gpgpu_num_sched_per_core                    2 # Number of warp schedulers per core
-gpgpu_max_insn_issue_per_warp                    1 # Max number of instructions that can be issued per warp in one cycle by scheduler
-gpgpu_simt_core_sim_order                    1 # Select the simulation order of cores in a cluster (0=Fix, 1=Round-Robin)
-gpgpu_pipeline_widths        2,1,1,2,1,1,2 # Pipeline widths ID_OC_SP,ID_OC_SFU,ID_OC_MEM,OC_EX_SP,OC_EX_SFU,OC_EX_MEM,EX_WB
-gpgpu_num_sp_units                     2 # Number of SP units (default=1)
-gpgpu_num_sfu_units                    1 # Number of SF units (default=1)
-gpgpu_num_mem_units                    1 # Number if ldst units (default=1) WARNING: not hooked up to anything
-gpgpu_scheduler                      gto # Scheduler configuration: < lrr | gto | two_level_active > If two_level_active:<num_active_warps>:<inner_prioritization>:<outer_prioritization>For complete list of prioritization values see shader.h enum scheduler_prioritization_typeDefault: gto
-gpgpu_dram_scheduler                    1 # 0 = fifo, 1 = FR-FCFS (defaul)
-gpgpu_dram_partition_queues              8:8:8:8 # i2$:$2d:d2$:$2i
-l2_ideal                               0 # Use a ideal L2 cache that always hit
-gpgpu_cache:dl2     64:128:8,L:B:m:W:L,A:32:4,4:0,32 # unified banked L2 data cache config  {<nsets>:<bsize>:<assoc>,<rep>:<wr>:<alloc>:<wr_alloc>,<mshr>:<N>:<merge>,<mq>}
-gpgpu_cache:dl2_texture_only                    0 # L2 cache used for texture only
-gpgpu_n_mem                            6 # number of memory modules (e.g. memory controllers) in gpu
-gpgpu_n_sub_partition_per_mchannel                    2 # number of memory subpartition in each memory module
-gpgpu_n_mem_per_ctrlr                    2 # number of memory chips per memory controller
-gpgpu_memlatency_stat                   14 # track and display latency statistics 0x2 enables MC, 0x4 enables queue logs
-gpgpu_frfcfs_dram_sched_queue_size                   16 # 0 = unlimited (default); # entries per chip
-gpgpu_dram_return_queue_size                  116 # 0 = unlimited (default); # entries per chip
-gpgpu_dram_buswidth                    4 # default = 4 bytes (8 bytes per cycle at DDR)
-gpgpu_dram_burst_length                    8 # Burst length of each DRAM request (default = 4 data bus cycle)
-dram_data_command_freq_ratio                    4 # Frequency ratio between DRAM data bus and command bus (default = 2 times, i.e. DDR)
-gpgpu_dram_timing_opt nbk=16:CCD=2:RRD=6:RCD=12:RAS=28:RP=12:RC=40: CL=12:WL=4:CDLR=5:WR=12:nbkgrp=4:CCDL=3:RTPL=2 # DRAM timing parameters = {nbk:tCCD:tRRD:tRCD:tRAS:tRP:tRC:CL:WL:tCDLR:tWR:nbkgrp:tCCDL:tRTPL}
-rop_latency                          120 # ROP queue latency (default 85)
-dram_latency                         100 # DRAM latency (default 30)
-gpgpu_mem_addr_mapping dramid@8;00000000.00000000.00000000.00000000.0000RRRR.RRRRRRRR.BBBCCCCB.CCSSSSSS # mapping memory address to dram model {dramid@<start bit>;<memory address map>}
-gpgpu_mem_addr_test                    0 # run sweep test to check address mapping for aliased address
-gpgpu_mem_address_mask                    1 # 0 = old addressing mask, 1 = new addressing mask, 2 = new add. mask + flipped bank sel and chip sel bits
-gpuwattch_xml_file  gpuwattch_gtx480.xml # GPUWattch XML file
-power_simulation_enabled                    1 # Turn on power simulator (1=On, 0=Off)
-power_per_cycle_dump                    0 # Dump detailed power output each cycle
-power_trace_enabled                    0 # produce a file for the power trace (1=On, 0=Off)
-power_trace_zlevel                     6 # Compression level of the power trace output log (0=no comp, 9=highest)
-steady_power_levels_enabled                    0 # produce a file for the steady power levels (1=On, 0=Off)
-steady_state_definition                  8:4 # allowed deviation:number of samples
-gpgpu_max_cycle                        0 # terminates gpu simulation early (0 = no limit)
-gpgpu_max_insn                         0 # terminates gpu simulation early (0 = no limit)
-gpgpu_max_cta                          0 # terminates gpu simulation early (0 = no limit)
-gpgpu_runtime_stat                   500 # display runtime statistics such as dram utilization {<freq>:<flag>}
-liveness_message_freq                    1 # Minimum number of seconds between simulation liveness messages (0 = always print)
-gpgpu_flush_l1_cache                    0 # Flush L1 cache at the end of each kernel call
-gpgpu_flush_l2_cache                    0 # Flush L2 cache at the end of each kernel call
-gpgpu_deadlock_detect                    1 # Stop the simulation at deadlock (1=on (default), 0=off)
-gpgpu_ptx_instruction_classification                    0 # if enabled will classify ptx instruction types per kernel (Max 255 kernels now)
-gpgpu_ptx_sim_mode                     0 # Select between Performance (default) or Functional simulation (1)
-gpgpu_clock_domains 700.0:700.0:700.0:924.0 # Clock Domain Frequencies in MhZ {<Core Clock>:<ICNT Clock>:<L2 Clock>:<DRAM Clock>}
-gpgpu_max_concurrent_kernel                    8 # maximum kernels that can run concurrently on GPU
-gpgpu_cflog_interval                    0 # Interval between each snapshot in control flow logger
-visualizer_enabled                     0 # Turn on visualizer output (1=On, 0=Off)
-visualizer_outputfile                 NULL # Specifies the output log file for visualizer
-visualizer_zlevel                      6 # Compression level of the visualizer output log (0=no comp, 9=highest)
-trace_enabled                          0 # Turn on traces
-trace_components                    none # comma seperated list of traces to enable. Complete list found in trace_streams.tup. Default none
-trace_sampling_core                    0 # The core which is printed using CORE_DPRINTF. Default 0
-trace_sampling_memory_partition                   -1 # The memory partition which is printed using MEMPART_DPRINTF. Default -1 (i.e. all)
-enable_ptx_file_line_stats                    1 # Turn on PTX source line statistic profiling. (1 = On)
-ptx_line_stats_filename gpgpu_inst_stats.txt # Output file for PTX source line statistics.
-save_embedded_ptx                      0 # saves ptx files embedded in binary as <n>.ptx
-keep                                   0 # keep intermediate files created by GPGPU-Sim when interfacing with external programs
-gpgpu_ptx_save_converted_ptxplus                    0 # Saved converted ptxplus to a file
-ptx_opcode_latency_int         4,13,4,5,145 # Opcode latencies for integers <ADD,MAX,MUL,MAD,DIV>Default 1,1,19,25,145
-ptx_opcode_latency_fp          4,13,4,5,39 # Opcode latencies for single precision floating points <ADD,MAX,MUL,MAD,DIV>Default 1,1,1,1,30
-ptx_opcode_latency_dp         8,19,8,8,330 # Opcode latencies for double precision floating points <ADD,MAX,MUL,MAD,DIV>Default 8,8,8,8,335
-ptx_opcode_initiation_int            1,2,2,1,8 # Opcode initiation intervals for integers <ADD,MAX,MUL,MAD,DIV>Default 1,1,4,4,32
-ptx_opcode_initiation_fp            1,2,1,1,4 # Opcode initiation intervals for single precision floating points <ADD,MAX,MUL,MAD,DIV>Default 1,1,1,1,5
-ptx_opcode_initiation_dp         8,16,8,8,130 # Opcode initiation intervals for double precision floating points <ADD,MAX,MUL,MAD,DIV>Default 8,8,8,8,130
DRAM Timing Options:
nbk                                    16 # number of banks
CCD                                     2 # column to column delay
RRD                                     6 # minimal delay between activation of rows in different banks
RCD                                    12 # row to column delay
RAS                                    28 # time needed to activate row
RP                                     12 # time needed to precharge (deactivate) row
RC                                     40 # row cycle time
CDLR                                    5 # switching from write to read (changes tWTR)
WR                                     12 # last data-in to row precharge
CL                                     12 # CAS latency
WL                                      4 # Write latency
nbkgrp                                  4 # number of bank groups
CCDL                                    3 # column to column delay between accesses to different bank groups
RTPL                                    2 # read to precharge delay between accesses to different bank groups
Total number of memory sub partition = 12
addr_dec_mask[CHIP]  = 0000000000000000 	high:64 low:0
addr_dec_mask[BK]    = 000000000000e100 	high:16 low:8
addr_dec_mask[ROW]   = 000000000fff0000 	high:28 low:16
addr_dec_mask[COL]   = 0000000000001eff 	high:13 low:0
addr_dec_mask[BURST] = 000000000000003f 	high:6 low:0
sub_partition_id_mask = 0000000000000100
GPGPU-Sim uArch: clock freqs: 700000000.000000:700000000.000000:700000000.000000:924000000.000000
GPGPU-Sim uArch: clock periods: 0.00000000142857142857:0.00000000142857142857:0.00000000142857142857:0.00000000108225108225
*** Initializing Memory Statistics ***
GPGPU-Sim uArch: interconnect node map (shaderID+MemID to icntID)
GPGPU-Sim uArch: Memory nodes ID start from index: 15
GPGPU-Sim uArch:    0   1   2   3   4
GPGPU-Sim uArch:    5   6   7   8   9
GPGPU-Sim uArch:   10  11  12  13  14
GPGPU-Sim uArch:   15  16  17  18  19
GPGPU-Sim uArch:   20  21  22  23  24
GPGPU-Sim uArch:   25  26
GPGPU-Sim uArch: interconnect node reverse map (icntID to shaderID+MemID)
GPGPU-Sim uArch: Memory nodes start from ID: 15
GPGPU-Sim uArch:    0   1   2   3   4
GPGPU-Sim uArch:    5   6   7   8   9
GPGPU-Sim uArch:   10  11  12  13  14
GPGPU-Sim uArch:   15  16  17  18  19
GPGPU-Sim uArch:   20  21  22  23  24
GPGPU-Sim uArch:   25  26
ee89055bc58e180b7b05d1332bfe7767  /home/scratch/adwait/applications/benchmarks/CUDA/LPS/gpgpu_ptx_sim__LPS
GPGPU-Sim uArch: performance model initialization complete.
GPGPU-Sim PTX: __cudaRegisterFatBinary, fat_cubin_handle = 1, filename=laplace3d.cu
self exe links to: /home/scratch/adwait/applications/benchmarks/CUDA/LPS/gpgpu_ptx_sim__LPS
Running md5sum using "md5sum /home/scratch/adwait/applications/benchmarks/CUDA/LPS/gpgpu_ptx_sim__LPS "
Running cuobjdump using "$CUDA_INSTALL_PATH/bin/cuobjdump -ptx -elf -sass /home/scratch/adwait/applications/benchmarks/CUDA/LPS/gpgpu_ptx_sim__LPS > _cuobjdump_complete_output_k5UvwN"
Parsing file _cuobjdump_complete_output_k5UvwN
######### cuobjdump parser ########
## Adding new section ELF
Adding arch: sm_20
Adding identifier: laplace3d.cu
## Adding new section PTX
Adding ptx filename: _cuobjdump_1.ptx
Adding arch: sm_20
Adding identifier: laplace3d.cu
Done parsing!!!
GPGPU-Sim PTX: __cudaRegisterFunction _Z13GPU_laplace3diiiiPfS_ : hostFun 0x0x40566f, fat_cubin_handle = 1
GPGPU-Sim PTX: allocating shared region for "__cuda___cuda_local_var_33528_33_non_const_u132" from 0x0 to 0x990 (shared memory space)
GPGPU-Sim PTX: instruction assembly for function '_Z13GPU_laplace3diiiiPfS_'...   done.
GPGPU-Sim PTX: finding reconvergence points for '_Z13GPU_laplace3diiiiPfS_'...
GPGPU-Sim PTX: Finding dominators for '_Z13GPU_laplace3diiiiPfS_'...
GPGPU-Sim PTX: Finding immediate dominators for '_Z13GPU_laplace3diiiiPfS_'...
GPGPU-Sim PTX: Finding postdominators for '_Z13GPU_laplace3diiiiPfS_'...
GPGPU-Sim PTX: Finding immediate postdominators for '_Z13GPU_laplace3diiiiPfS_'...
GPGPU-Sim PTX: pre-decoding instructions for '_Z13GPU_laplace3diiiiPfS_'...
GPGPU-Sim PTX: reconvergence points for _Z13GPU_laplace3diiiiPfS_...
GPGPU-Sim PTX:  1 (potential) branch divergence @  PC=0x060 (_1.ptx:82) @!%p1 bra $Lt_0_14338;
GPGPU-Sim PTX:    immediate post dominator      @  PC=0x230 (_1.ptx:154) add.s32 %r57, %r37, %r12;
GPGPU-Sim PTX:  2 (potential) branch divergence @  PC=0x080 (_1.ptx:86) @%p2 bra $Lt_0_14850;
GPGPU-Sim PTX:    immediate post dominator      @  PC=0x120 (_1.ptx:113) add.s32 %r30, %r16, 1;
GPGPU-Sim PTX:  3 (potential) branch divergence @  PC=0x0a0 (_1.ptx:92) bra.uni $Lt_0_14594;
GPGPU-Sim PTX:    immediate post dominator      @  PC=0x120 (_1.ptx:113) add.s32 %r30, %r16, 1;
GPGPU-Sim PTX:  4 (potential) branch divergence @  PC=0x200 (_1.ptx:145) bra.uni $Lt_0_14082;
GPGPU-Sim PTX:    immediate post dominator      @  PC=0x230 (_1.ptx:154) add.s32 %r57, %r37, %r12;
GPGPU-Sim PTX:  5 (potential) branch divergence @  PC=0x290 (_1.ptx:166) @%p5 bra $Lt_0_15106;
GPGPU-Sim PTX:    immediate post dominator      @  PC=0x308 (_1.ptx:183) mov.u64 %rd1, __cuda___cuda_local_var_33528_33_non_const_u132;
GPGPU-Sim PTX:  6 (potential) branch divergence @  PC=0x320 (_1.ptx:186) @!%p6 bra $Lt_0_15618;
GPGPU-Sim PTX:    immediate post dominator      @  PC=0x380 (_1.ptx:200) ld.param.s32 %r73, [__cudaparm__Z13GPU_laplace3diiiiPfS__NZ];
GPGPU-Sim PTX:  7 (potential) branch divergence @  PC=0x398 (_1.ptx:203) @%p7 bra $Lt_0_16130;
GPGPU-Sim PTX:    immediate post dominator      @  PC=0x6d8 (_1.ptx:335) exit;
GPGPU-Sim PTX:  8 (potential) branch divergence @  PC=0x408 (_1.ptx:219) @%p8 bra $Lt_0_17410;
GPGPU-Sim PTX:    immediate post dominator      @  PC=0x4a0 (_1.ptx:245) @!%p6 bra $Lt_0_18434;
GPGPU-Sim PTX:  9 (potential) branch divergence @  PC=0x468 (_1.ptx:235) @%p9 bra $Lt_0_17410;
GPGPU-Sim PTX:    immediate post dominator      @  PC=0x4a0 (_1.ptx:245) @!%p6 bra $Lt_0_18434;
GPGPU-Sim PTX: 10 (potential) branch divergence @  PC=0x4a0 (_1.ptx:245) @!%p6 bra $Lt_0_18434;
GPGPU-Sim PTX:    immediate post dominator      @  PC=0x548 (_1.ptx:273) bar.sync 0;
GPGPU-Sim PTX: 11 (potential) branch divergence @  PC=0x510 (_1.ptx:262) @%p10 bra $Lt_0_18434;
GPGPU-Sim PTX:    immediate post dominator      @  PC=0x548 (_1.ptx:273) bar.sync 0;
GPGPU-Sim PTX: 12 (potential) branch divergence @  PC=0x560 (_1.ptx:276) @%p11 bra $Lt_0_18946;
GPGPU-Sim PTX:    immediate post dominator      @  PC=0x6b8 (_1.ptx:329) bar.sync 0;
GPGPU-Sim PTX: 13 (potential) branch divergence @  PC=0x578 (_1.ptx:280) @%p12 bra $Lt_0_20738;
GPGPU-Sim PTX:    immediate post dominator      @  PC=0x688 (_1.ptx:321) ld.param.u64 %rd35, [__cudaparm__Z13GPU_laplace3diiiiPfS__d_u2];
GPGPU-Sim PTX: 14 (potential) branch divergence @  PC=0x588 (_1.ptx:282) @%p13 bra $Lt_0_20738;
GPGPU-Sim PTX:    immediate post dominator      @  PC=0x688 (_1.ptx:321) ld.param.u64 %rd35, [__cudaparm__Z13GPU_laplace3diiiiPfS__d_u2];
GPGPU-Sim PTX: 15 (potential) branch divergence @  PC=0x5a0 (_1.ptx:285) @%p14 bra $Lt_0_20738;
GPGPU-Sim PTX:    immediate post dominator      @  PC=0x688 (_1.ptx:321) ld.param.u64 %rd35, [__cudaparm__Z13GPU_laplace3diiiiPfS__d_u2];
GPGPU-Sim PTX: 16 (potential) branch divergence @  PC=0x5b0 (_1.ptx:287) @%p15 bra $Lt_0_20738;
GPGPU-Sim PTX:    immediate post dominator      @  PC=0x688 (_1.ptx:321) ld.param.u64 %rd35, [__cudaparm__Z13GPU_laplace3diiiiPfS__d_u2];
GPGPU-Sim PTX: 17 (potential) branch divergence @  PC=0x5c8 (_1.ptx:290) @%p16 bra $Lt_0_20738;
GPGPU-Sim PTX:    immediate post dominator      @  PC=0x688 (_1.ptx:321) ld.param.u64 %rd35, [__cudaparm__Z13GPU_laplace3diiiiPfS__d_u2];
GPGPU-Sim PTX: 18 (potential) branch divergence @  PC=0x5d8 (_1.ptx:292) @%p17 bra $L_0_12546;
GPGPU-Sim PTX:    immediate post dominator      @  PC=0x688 (_1.ptx:321) ld.param.u64 %rd35, [__cudaparm__Z13GPU_laplace3diiiiPfS__d_u2];
GPGPU-Sim PTX: 19 (potential) branch divergence @  PC=0x600 (_1.ptx:300) bra.uni $L_0_12290;
GPGPU-Sim PTX:    immediate post dominator      @  PC=0x688 (_1.ptx:321) ld.param.u64 %rd35, [__cudaparm__Z13GPU_laplace3diiiiPfS__d_u2];
GPGPU-Sim PTX: 20 (potential) branch divergence @  PC=0x6d0 (_1.ptx:332) @%p18 bra $Lt_0_16642;
GPGPU-Sim PTX:    immediate post dominator      @  PC=0x6d8 (_1.ptx:335) exit;
GPGPU-Sim PTX: ... end of reconvergence points for _Z13GPU_laplace3diiiiPfS_
GPGPU-Sim PTX: ... done pre-decoding instructions for '_Z13GPU_laplace3diiiiPfS_'.
GPGPU-Sim PTX: finished parsing EMBEDDED .ptx file _1.ptx
Adding _cuobjdump_1.ptx with cubin handle 1
GPGPU-Sim PTX: extracting embedded .ptx to temporary file "_ptx_XlldYA"
Running: cat _ptx_XlldYA | sed 's/.version 1.5/.version 1.4/' | sed 's/, texmode_independent//' | sed 's/\(\.extern \.const\[1\] .b8 \w\+\)\[\]/\1\[1\]/' | sed 's/const\[.\]/const\[0\]/g' > _ptx2_L303ro
GPGPU-Sim PTX: generating ptxinfo using "$CUDA_INSTALL_PATH/bin/ptxas --gpu-name=sm_20 -v _ptx2_L303ro --output-file  /dev/null 2> _ptx_XlldYAinfo"
GPGPU-Sim PTX: Kernel '_Z13GPU_laplace3diiiiPfS_' : regs=17, lmem=0, smem=2448, cmem=64
GPGPU-Sim PTX: removing ptxinfo using "rm -f _ptx_XlldYA _ptx2_L303ro _ptx_XlldYAinfo"
GPGPU-Sim PTX: loading globals with explicit initializers... 
GPGPU-Sim PTX: finished loading globals (0 bytes total).
GPGPU-Sim PTX: loading constants with explicit initializers...  done.

Grid dimensions: 100 x 100 x 100
GPGPU-Sim PTX: cudaMallocPitch (width = 400)
GPGPU-Sim PTX: cudaMallocPitch (width = 400)
GPGPU-Sim: synchronize waiting for inactive GPU simulation
GPGPU-Sim API: Stream Manager State
GPGPU-Sim: detected inactive GPU simulation thread

Copy u1 to device: 102.314003 (ms) 

 dimGrid  = 4 25 1 
 dimBlock = 32 4 1 
GPGPU-Sim: synchronize waiting for inactive GPU simulation
GPGPU-Sim API: Stream Manager State
GPGPU-Sim: detected inactive GPU simulation thread

GPGPU-Sim PTX: cudaLaunch for 0x0x40566f (mode=performance simulation) on stream 0
GPGPU-Sim PTX: pushing kernel '_Z13GPU_laplace3diiiiPfS_' to stream 0, gridDim= (4,25,1) blockDim = (32,4,1) 
kernel '_Z13GPU_laplace3diiiiPfS_' transfer to GPU hardware scheduler
GPGPU-Sim uArch: Shader 1 bind to kernel 1 '_Z13GPU_laplace3diiiiPfS_'
GPGPU-Sim uArch: CTA/core = 8, limited by: cta_limit
GPGPU-Sim uArch: core:  1, cta: 0 initialized @(1,0)
GPGPU-Sim uArch: Shader 2 bind to kernel 1 '_Z13GPU_laplace3diiiiPfS_'
GPGPU-Sim uArch: core:  2, cta: 0 initialized @(1,0)
GPGPU-Sim uArch: Shader 3 bind to kernel 1 '_Z13GPU_laplace3diiiiPfS_'
GPGPU-Sim uArch: core:  3, cta: 0 initialized @(1,0)
GPGPU-Sim uArch: Shader 4 bind to kernel 1 '_Z13GPU_laplace3diiiiPfS_'
GPGPU-Sim uArch: core:  4, cta: 0 initialized @(1,0)
GPGPU-Sim uArch: Shader 5 bind to kernel 1 '_Z13GPU_laplace3diiiiPfS_'
GPGPU-Sim uArch: core:  5, cta: 0 initialized @(1,0)
GPGPU-Sim uArch: Shader 6 bind to kernel 1 '_Z13GPU_laplace3diiiiPfS_'
GPGPU-Sim uArch: core:  6, cta: 0 initialized @(1,0)
GPGPU-Sim uArch: Shader 7 bind to kernel 1 '_Z13GPU_laplace3diiiiPfS_'
GPGPU-Sim uArch: core:  7, cta: 0 initialized @(1,0)
GPGPU-Sim uArch: Shader 8 bind to kernel 1 '_Z13GPU_laplace3diiiiPfS_'
GPGPU-Sim uArch: core:  8, cta: 0 initialized @(1,0)
GPGPU-Sim uArch: Shader 9 bind to kernel 1 '_Z13GPU_laplace3diiiiPfS_'
GPGPU-Sim uArch: core:  9, cta: 0 initialized @(1,0)
GPGPU-Sim uArch: Shader 10 bind to kernel 1 '_Z13GPU_laplace3diiiiPfS_'
GPGPU-Sim uArch: core: 10, cta: 0 initialized @(1,0)
GPGPU-Sim uArch: Shader 11 bind to kernel 1 '_Z13GPU_laplace3diiiiPfS_'
GPGPU-Sim uArch: core: 11, cta: 0 initialized @(1,0)
GPGPU-Sim uArch: Shader 12 bind to kernel 1 '_Z13GPU_laplace3diiiiPfS_'
GPGPU-Sim uArch: core: 12, cta: 0 initialized @(1,0)
GPGPU-Sim uArch: Shader 13 bind to kernel 1 '_Z13GPU_laplace3diiiiPfS_'
GPGPU-Sim uArch: core: 13, cta: 0 initialized @(1,0)
GPGPU-Sim uArch: Shader 14 bind to kernel 1 '_Z13GPU_laplace3diiiiPfS_'
GPGPU-Sim uArch: core: 14, cta: 0 initialized @(1,0)
GPGPU-Sim uArch: Shader 0 bind to kernel 1 '_Z13GPU_laplace3diiiiPfS_'
GPGPU-Sim uArch: core:  0, cta: 0 initialized @(1,0)
GPGPU-Sim uArch: core:  1, cta: 1 initialized @(2,0)
GPGPU-Sim uArch: core:  2, cta: 1 initialized @(2,0)
GPGPU-Sim uArch: core:  3, cta: 1 initialized @(2,0)
GPGPU-Sim uArch: core:  4, cta: 1 initialized @(2,0)
GPGPU-Sim uArch: core:  5, cta: 1 initialized @(2,0)
GPGPU-Sim uArch: core:  6, cta: 1 initialized @(2,0)
GPGPU-Sim uArch: core:  7, cta: 1 initialized @(2,0)
GPGPU-Sim uArch: core:  8, cta: 1 initialized @(2,0)
GPGPU-Sim uArch: core:  9, cta: 1 initialized @(2,0)
GPGPU-Sim uArch: core: 10, cta: 1 initialized @(2,0)
GPGPU-Sim uArch: core: 11, cta: 1 initialized @(2,0)
GPGPU-Sim uArch: core: 12, cta: 1 initialized @(2,0)
GPGPU-Sim uArch: core: 13, cta: 1 initialized @(2,0)
GPGPU-Sim uArch: core: 14, cta: 1 initialized @(2,0)
GPGPU-Sim uArch: core:  0, cta: 1 initialized @(2,0)
GPGPU-Sim uArch: core:  1, cta: 2 initialized @(3,0)
GPGPU-Sim uArch: core:  2, cta: 2 initialized @(3,0)
GPGPU-Sim uArch: core:  3, cta: 2 initialized @(3,0)
GPGPU-Sim uArch: core:  4, cta: 2 initialized @(3,0)
GPGPU-Sim uArch: core:  5, cta: 2 initialized @(3,0)
GPGPU-Sim uArch: core:  6, cta: 2 initialized @(3,0)
GPGPU-Sim uArch: core:  7, cta: 2 initialized @(3,0)
GPGPU-Sim uArch: core:  8, cta: 2 initialized @(3,0)
GPGPU-Sim uArch: core:  9, cta: 2 initialized @(3,0)
GPGPU-Sim uArch: core: 10, cta: 2 initialized @(3,0)
GPGPU-Sim uArch: core: 11, cta: 2 initialized @(3,0)
GPGPU-Sim uArch: core: 12, cta: 2 initialized @(3,0)
GPGPU-Sim uArch: core: 13, cta: 2 initialized @(3,0)
GPGPU-Sim uArch: core: 14, cta: 2 initialized @(3,0)
GPGPU-Sim uArch: core:  0, cta: 2 initialized @(3,0)
GPGPU-Sim uArch: core:  1, cta: 3 initialized @(4,0)
GPGPU-Sim uArch: core:  2, cta: 3 initialized @(4,0)
GPGPU-Sim uArch: core:  3, cta: 3 initialized @(4,0)
GPGPU-Sim uArch: core:  4, cta: 3 initialized @(4,0)
GPGPU-Sim uArch: core:  5, cta: 3 initialized @(4,0)
GPGPU-Sim uArch: core:  6, cta: 3 initialized @(4,0)
GPGPU-Sim uArch: core:  7, cta: 3 initialized @(4,0)
GPGPU-Sim uArch: core:  8, cta: 3 initialized @(4,0)
GPGPU-Sim uArch: core:  9, cta: 3 initialized @(4,0)
GPGPU-Sim uArch: core: 10, cta: 3 initialized @(4,0)
GPGPU-Sim uArch: core: 11, cta: 3 initialized @(4,0)
GPGPU-Sim uArch: core: 12, cta: 3 initialized @(4,0)
GPGPU-Sim uArch: core: 13, cta: 3 initialized @(4,0)
GPGPU-Sim uArch: core: 14, cta: 3 initialized @(4,0)
GPGPU-Sim uArch: core:  0, cta: 3 initialized @(4,0)
GPGPU-Sim uArch: core:  1, cta: 4 initialized @(5,0)
GPGPU-Sim uArch: core:  2, cta: 4 initialized @(5,0)
GPGPU-Sim uArch: core:  3, cta: 4 initialized @(5,0)
GPGPU-Sim uArch: core:  4, cta: 4 initialized @(5,0)
GPGPU-Sim uArch: core:  5, cta: 4 initialized @(5,0)
GPGPU-Sim uArch: core:  6, cta: 4 initialized @(5,0)
GPGPU-Sim uArch: core:  7, cta: 4 initialized @(5,0)
GPGPU-Sim uArch: core:  8, cta: 4 initialized @(5,0)
GPGPU-Sim uArch: core:  9, cta: 4 initialized @(5,0)
GPGPU-Sim uArch: core: 10, cta: 4 initialized @(5,0)
GPGPU-Sim uArch: core: 11, cta: 4 initialized @(5,0)
GPGPU-Sim uArch: core: 12, cta: 4 initialized @(5,0)
GPGPU-Sim uArch: core: 13, cta: 4 initialized @(5,0)
GPGPU-Sim uArch: core: 14, cta: 4 initialized @(5,0)
GPGPU-Sim uArch: core:  0, cta: 4 initialized @(5,0)
GPGPU-Sim uArch: core:  1, cta: 5 initialized @(6,0)
GPGPU-Sim uArch: core:  2, cta: 5 initialized @(6,0)
GPGPU-Sim uArch: core:  3, cta: 5 initialized @(6,0)
GPGPU-Sim uArch: core:  4, cta: 5 initialized @(6,0)
GPGPU-Sim uArch: core:  5, cta: 5 initialized @(6,0)
GPGPU-Sim uArch: core:  6, cta: 5 initialized @(6,0)
GPGPU-Sim uArch: core:  7, cta: 5 initialized @(6,0)
GPGPU-Sim uArch: core:  8, cta: 5 initialized @(6,0)
GPGPU-Sim uArch: core:  9, cta: 5 initialized @(6,0)
GPGPU-Sim uArch: core: 10, cta: 5 initialized @(6,0)
GPGPU-Sim uArch: core: 11, cta: 5 initialized @(6,0)
GPGPU-Sim uArch: core: 12, cta: 5 initialized @(6,0)
GPGPU-Sim uArch: core: 13, cta: 5 initialized @(6,0)
GPGPU-Sim uArch: core: 14, cta: 5 initialized @(6,0)
GPGPU-Sim uArch: core:  0, cta: 5 initialized @(6,0)
GPGPU-Sim uArch: core:  1, cta: 6 initialized @(7,0)
GPGPU-Sim uArch: core:  2, cta: 6 initialized @(7,0)
GPGPU-Sim uArch: core:  3, cta: 6 initialized @(7,0)
GPGPU-Sim uArch: core:  4, cta: 6 initialized @(7,0)
GPGPU-Sim uArch: core:  5, cta: 6 initialized @(7,0)
GPGPU-Sim uArch: core:  6, cta: 6 initialized @(7,0)
GPGPU-Sim uArch: core:  7, cta: 6 initialized @(7,0)
GPGPU-Sim uArch: core:  8, cta: 6 initialized @(7,0)
GPGPU-Sim uArch: core:  9, cta: 6 initialized @(7,0)
GPGPU-Sim uArch: core: 10, cta: 6 initialized @(7,0)
GPGPU-Sim PTX: 100000 instructions simulated : ctaid=(1,4,0) tid=(31,1,0)
GPGPU-Sim uArch: cycles simulated: 500  inst.: 109668 (ipc=219.3) sim_rate=109668 (inst/sec) elapsed = 0:0:00:01 / Tue Apr 16 16:56:31 2019
GPGPU-Sim PTX: 200000 instructions simulated : ctaid=(2,22,0) tid=(19,2,0)
GPGPU-Sim PTX: 300000 instructions simulated : ctaid=(0,11,0) tid=(31,3,0)
GPGPU-Sim PTX: 400000 instructions simulated : ctaid=(0,23,0) tid=(15,1,0)
GPGPU-Sim uArch: cycles simulated: 1500  inst.: 424724 (ipc=283.1) sim_rate=212362 (inst/sec) elapsed = 0:0:00:02 / Tue Apr 16 16:56:32 2019
GPGPU-Sim PTX: 500000 instructions simulated : ctaid=(3,12,0) tid=(23,0,0)
GPGPU-Sim PTX: 600000 instructions simulated : ctaid=(3,12,0) tid=(11,1,0)
GPGPU-Sim PTX: 700000 instructions simulated : ctaid=(1,16,0) tid=(7,1,0)
GPGPU-Sim uArch: cycles simulated: 2000  inst.: 745558 (ipc=372.8) sim_rate=248519 (inst/sec) elapsed = 0:0:00:03 / Tue Apr 16 16:56:33 2019
GPGPU-Sim PTX: 800000 instructions simulated : ctaid=(3,2,0) tid=(31,1,0)
GPGPU-Sim PTX: 900000 instructions simulated : ctaid=(2,18,0) tid=(5,1,0)
GPGPU-Sim PTX: 1000000 instructions simulated : ctaid=(0,1,0) tid=(30,1,0)
GPGPU-Sim PTX: 1100000 instructions simulated : ctaid=(1,24,0) tid=(27,3,0)
GPGPU-Sim PTX: 1200000 instructions simulated : ctaid=(0,2,0) tid=(19,2,0)
GPGPU-Sim uArch: cycles simulated: 3000  inst.: 1209156 (ipc=403.1) sim_rate=302289 (inst/sec) elapsed = 0:0:00:04 / Tue Apr 16 16:56:34 2019
GPGPU-Sim PTX: 1300000 instructions simulated : ctaid=(0,15,0) tid=(12,3,0)
GPGPU-Sim PTX: 1400000 instructions simulated : ctaid=(0,21,0) tid=(11,0,0)
GPGPU-Sim uArch: cycles simulated: 4000  inst.: 1410554 (ipc=352.6) sim_rate=282110 (inst/sec) elapsed = 0:0:00:05 / Tue Apr 16 16:56:35 2019
GPGPU-Sim PTX: 1500000 instructions simulated : ctaid=(2,5,0) tid=(24,3,0)
GPGPU-Sim PTX: 1600000 instructions simulated : ctaid=(1,3,0) tid=(6,1,0)
GPGPU-Sim PTX: 1700000 instructions simulated : ctaid=(1,9,0) tid=(3,0,0)
GPGPU-Sim PTX: 1800000 instructions simulated : ctaid=(0,19,0) tid=(7,0,0)
GPGPU-Sim uArch: cycles simulated: 5000  inst.: 1686442 (ipc=337.3) sim_rate=281073 (inst/sec) elapsed = 0:0:00:06 / Tue Apr 16 16:56:36 2019
GPGPU-Sim PTX: 1900000 instructions simulated : ctaid=(1,20,0) tid=(3,3,0)
GPGPU-Sim PTX: 2000000 instructions simulated : ctaid=(2,14,0) tid=(14,2,0)
GPGPU-Sim PTX: 2100000 instructions simulated : ctaid=(0,18,0) tid=(15,1,0)
GPGPU-Sim uArch: cycles simulated: 6500  inst.: 1962363 (ipc=301.9) sim_rate=280337 (inst/sec) elapsed = 0:0:00:07 / Tue Apr 16 16:56:37 2019
GPGPU-Sim PTX: 2200000 instructions simulated : ctaid=(0,22,0) tid=(26,1,0)
GPGPU-Sim PTX: 2300000 instructions simulated : ctaid=(3,4,0) tid=(2,1,0)
GPGPU-Sim PTX: 2400000 instructions simulated : ctaid=(2,1,0) tid=(13,2,0)
GPGPU-Sim PTX: 2500000 instructions simulated : ctaid=(2,3,0) tid=(12,3,0)
GPGPU-Sim PTX: 2600000 instructions simulated : ctaid=(3,5,0) tid=(24,0,0)
GPGPU-Sim PTX: 2700000 instructions simulated : ctaid=(1,19,0) tid=(16,1,0)
GPGPU-Sim uArch: cycles simulated: 7500  inst.: 2482870 (ipc=331.0) sim_rate=310358 (inst/sec) elapsed = 0:0:00:08 / Tue Apr 16 16:56:38 2019
GPGPU-Sim PTX: 2800000 instructions simulated : ctaid=(2,14,0) tid=(4,0,0)
GPGPU-Sim uArch: cycles simulated: 8000  inst.: 2596783 (ipc=324.6) sim_rate=288531 (inst/sec) elapsed = 0:0:00:09 / Tue Apr 16 16:56:39 2019
GPGPU-Sim PTX: 2900000 instructions simulated : ctaid=(3,6,0) tid=(2,3,0)
GPGPU-Sim PTX: 3000000 instructions simulated : ctaid=(1,0,0) tid=(8,3,0)
GPGPU-Sim PTX: 3100000 instructions simulated : ctaid=(2,8,0) tid=(24,3,0)
GPGPU-Sim PTX: 3200000 instructions simulated : ctaid=(0,13,0) tid=(2,1,0)
GPGPU-Sim PTX: 3300000 instructions simulated : ctaid=(0,15,0) tid=(10,3,0)
GPGPU-Sim uArch: cycles simulated: 9000  inst.: 3021955 (ipc=335.8) sim_rate=302195 (inst/sec) elapsed = 0:0:00:10 / Tue Apr 16 16:56:40 2019
GPGPU-Sim PTX: 3400000 instructions simulated : ctaid=(0,11,0) tid=(0,0,0)
GPGPU-Sim PTX: 3500000 instructions simulated : ctaid=(0,17,0) tid=(8,3,0)
GPGPU-Sim uArch: cycles simulated: 9500  inst.: 3263337 (ipc=343.5) sim_rate=296667 (inst/sec) elapsed = 0:0:00:11 / Tue Apr 16 16:56:41 2019
GPGPU-Sim PTX: 3600000 instructions simulated : ctaid=(1,23,0) tid=(29,3,0)
GPGPU-Sim PTX: 3700000 instructions simulated : ctaid=(1,8,0) tid=(10,2,0)
GPGPU-Sim PTX: 3800000 instructions simulated : ctaid=(1,20,0) tid=(19,1,0)
GPGPU-Sim PTX: 3900000 instructions simulated : ctaid=(1,23,0) tid=(10,2,0)
GPGPU-Sim PTX: 4000000 instructions simulated : ctaid=(1,19,0) tid=(4,2,0)
GPGPU-Sim uArch: cycles simulated: 10500  inst.: 3625127 (ipc=345.3) sim_rate=302093 (inst/sec) elapsed = 0:0:00:12 / Tue Apr 16 16:56:42 2019
GPGPU-Sim PTX: 4100000 instructions simulated : ctaid=(0,22,0) tid=(11,0,0)
GPGPU-Sim PTX: 4200000 instructions simulated : ctaid=(0,1,0) tid=(16,1,0)
GPGPU-Sim PTX: 4300000 instructions simulated : ctaid=(2,18,0) tid=(27,3,0)
GPGPU-Sim uArch: cycles simulated: 11000  inst.: 3926972 (ipc=357.0) sim_rate=302074 (inst/sec) elapsed = 0:0:00:13 / Tue Apr 16 16:56:43 2019
GPGPU-Sim PTX: 4400000 instructions simulated : ctaid=(1,21,0) tid=(10,3,0)
GPGPU-Sim PTX: 4500000 instructions simulated : ctaid=(0,14,0) tid=(4,1,0)
GPGPU-Sim PTX: 4600000 instructions simulated : ctaid=(3,7,0) tid=(2,0,0)
GPGPU-Sim PTX: 4700000 instructions simulated : ctaid=(2,10,0) tid=(28,2,0)
GPGPU-Sim PTX: 4800000 instructions simulated : ctaid=(1,7,0) tid=(2,1,0)
GPGPU-Sim uArch: cycles simulated: 12000  inst.: 4349213 (ipc=362.4) sim_rate=310658 (inst/sec) elapsed = 0:0:00:14 / Tue Apr 16 16:56:44 2019
GPGPU-Sim PTX: 4900000 instructions simulated : ctaid=(2,16,0) tid=(19,0,0)
GPGPU-Sim PTX: 5000000 instructions simulated : ctaid=(3,7,0) tid=(10,2,0)
GPGPU-Sim PTX: 5100000 instructions simulated : ctaid=(1,20,0) tid=(6,3,0)
GPGPU-Sim uArch: cycles simulated: 12500  inst.: 4645685 (ipc=371.7) sim_rate=309712 (inst/sec) elapsed = 0:0:00:15 / Tue Apr 16 16:56:45 2019
GPGPU-Sim PTX: 5200000 instructions simulated : ctaid=(1,20,0) tid=(15,2,0)
GPGPU-Sim PTX: 5300000 instructions simulated : ctaid=(3,14,0) tid=(1,1,0)
GPGPU-Sim uArch: cycles simulated: 13000  inst.: 4865826 (ipc=374.3) sim_rate=304114 (inst/sec) elapsed = 0:0:00:16 / Tue Apr 16 16:56:46 2019
GPGPU-Sim PTX: 5400000 instructions simulated : ctaid=(2,15,0) tid=(18,1,0)
GPGPU-Sim PTX: 5500000 instructions simulated : ctaid=(1,3,0) tid=(28,0,0)
GPGPU-Sim PTX: 5600000 instructions simulated : ctaid=(3,5,0) tid=(2,3,0)
GPGPU-Sim PTX: 5700000 instructions simulated : ctaid=(0,13,0) tid=(6,0,0)
GPGPU-Sim PTX: 5800000 instructions simulated : ctaid=(0,14,0) tid=(2,3,0)
GPGPU-Sim PTX: 5900000 instructions simulated : ctaid=(2,5,0) tid=(2,2,0)
GPGPU-Sim uArch: cycles simulated: 14000  inst.: 5393148 (ipc=385.2) sim_rate=317244 (inst/sec) elapsed = 0:0:00:17 / Tue Apr 16 16:56:47 2019
GPGPU-Sim PTX: 6000000 instructions simulated : ctaid=(0,18,0) tid=(19,1,0)
GPGPU-Sim PTX: 6100000 instructions simulated : ctaid=(0,24,0) tid=(20,1,0)
GPGPU-Sim PTX: 6200000 instructions simulated : ctaid=(0,4,0) tid=(18,1,0)
GPGPU-Sim uArch: cycles simulated: 14500  inst.: 5630213 (ipc=388.3) sim_rate=312789 (inst/sec) elapsed = 0:0:00:18 / Tue Apr 16 16:56:48 2019
GPGPU-Sim PTX: 6300000 instructions simulated : ctaid=(2,10,0) tid=(28,3,0)
GPGPU-Sim PTX: 6400000 instructions simulated : ctaid=(2,14,0) tid=(16,3,0)
GPGPU-Sim PTX: 6500000 instructions simulated : ctaid=(2,4,0) tid=(20,1,0)
GPGPU-Sim uArch: cycles simulated: 15000  inst.: 5882607 (ipc=392.2) sim_rate=309610 (inst/sec) elapsed = 0:0:00:19 / Tue Apr 16 16:56:49 2019
GPGPU-Sim PTX: 6600000 instructions simulated : ctaid=(2,11,0) tid=(14,1,0)
GPGPU-Sim PTX: 6700000 instructions simulated : ctaid=(2,0,0) tid=(14,2,0)
GPGPU-Sim PTX: 6800000 instructions simulated : ctaid=(0,22,0) tid=(24,2,0)
GPGPU-Sim PTX: 6900000 instructions simulated : ctaid=(1,5,0) tid=(26,0,0)
GPGPU-Sim PTX: 7000000 instructions simulated : ctaid=(0,17,0) tid=(24,3,0)
GPGPU-Sim PTX: 7100000 instructions simulated : ctaid=(2,8,0) tid=(0,2,0)
GPGPU-Sim uArch: cycles simulated: 16000  inst.: 6390703 (ipc=399.4) sim_rate=319535 (inst/sec) elapsed = 0:0:00:20 / Tue Apr 16 16:56:50 2019
GPGPU-Sim PTX: 7200000 instructions simulated : ctaid=(0,10,0) tid=(16,1,0)
GPGPU-Sim PTX: 7300000 instructions simulated : ctaid=(1,24,0) tid=(15,0,0)
GPGPU-Sim uArch: cycles simulated: 16500  inst.: 6642395 (ipc=402.6) sim_rate=316304 (inst/sec) elapsed = 0:0:00:21 / Tue Apr 16 16:56:51 2019
GPGPU-Sim PTX: 7400000 instructions simulated : ctaid=(2,4,0) tid=(6,3,0)
GPGPU-Sim PTX: 7500000 instructions simulated : ctaid=(0,12,0) tid=(4,0,0)
GPGPU-Sim PTX: 7600000 instructions simulated : ctaid=(2,1,0) tid=(26,2,0)
GPGPU-Sim PTX: 7700000 instructions simulated : ctaid=(0,18,0) tid=(15,0,0)
GPGPU-Sim uArch: cycles simulated: 17000  inst.: 6912687 (ipc=406.6) sim_rate=314213 (inst/sec) elapsed = 0:0:00:22 / Tue Apr 16 16:56:52 2019
GPGPU-Sim PTX: 7800000 instructions simulated : ctaid=(1,15,0) tid=(14,2,0)
GPGPU-Sim PTX: 7900000 instructions simulated : ctaid=(0,5,0) tid=(10,3,0)
GPGPU-Sim PTX: 8000000 instructions simulated : ctaid=(0,8,0) tid=(30,2,0)
GPGPU-Sim PTX: 8100000 instructions simulated : ctaid=(1,23,0) tid=(17,1,0)
GPGPU-Sim uArch: cycles simulated: 18000  inst.: 7333484 (ipc=407.4) sim_rate=318847 (inst/sec) elapsed = 0:0:00:23 / Tue Apr 16 16:56:53 2019
GPGPU-Sim PTX: 8200000 instructions simulated : ctaid=(2,4,0) tid=(3,2,0)
GPGPU-Sim PTX: 8300000 instructions simulated : ctaid=(2,10,0) tid=(21,3,0)
GPGPU-Sim PTX: 8400000 instructions simulated : ctaid=(0,6,0) tid=(29,3,0)
GPGPU-Sim uArch: cycles simulated: 18500  inst.: 7594480 (ipc=410.5) sim_rate=316436 (inst/sec) elapsed = 0:0:00:24 / Tue Apr 16 16:56:54 2019
GPGPU-Sim PTX: 8500000 instructions simulated : ctaid=(0,22,0) tid=(21,1,0)
GPGPU-Sim PTX: 8600000 instructions simulated : ctaid=(3,17,0) tid=(13,3,0)
GPGPU-Sim PTX: 8700000 instructions simulated : ctaid=(0,15,0) tid=(17,0,0)
GPGPU-Sim PTX: 8800000 instructions simulated : ctaid=(0,17,0) tid=(8,3,0)
GPGPU-Sim PTX: 8900000 instructions simulated : ctaid=(2,4,0) tid=(0,2,0)
GPGPU-Sim uArch: cycles simulated: 19500  inst.: 8068052 (ipc=413.7) sim_rate=322722 (inst/sec) elapsed = 0:0:00:25 / Tue Apr 16 16:56:55 2019
GPGPU-Sim PTX: 9000000 instructions simulated : ctaid=(1,6,0) tid=(24,3,0)
GPGPU-Sim PTX: 9100000 instructions simulated : ctaid=(0,14,0) tid=(8,1,0)
GPGPU-Sim PTX: 9200000 instructions simulated : ctaid=(2,2,0) tid=(9,2,0)
GPGPU-Sim uArch: cycles simulated: 20000  inst.: 8313332 (ipc=415.7) sim_rate=319743 (inst/sec) elapsed = 0:0:00:26 / Tue Apr 16 16:56:56 2019
GPGPU-Sim PTX: 9300000 instructions simulated : ctaid=(0,15,0) tid=(17,1,0)
GPGPU-Sim PTX: 9400000 instructions simulated : ctaid=(0,10,0) tid=(10,2,0)
GPGPU-Sim PTX: 9500000 instructions simulated : ctaid=(0,0,0) tid=(5,2,0)
GPGPU-Sim uArch: cycles simulated: 20500  inst.: 8599840 (ipc=419.5) sim_rate=318512 (inst/sec) elapsed = 0:0:00:27 / Tue Apr 16 16:56:57 2019
GPGPU-Sim PTX: 9600000 instructions simulated : ctaid=(0,23,0) tid=(14,3,0)
GPGPU-Sim PTX: 9700000 instructions simulated : ctaid=(0,24,0) tid=(11,2,0)
GPGPU-Sim PTX: 9800000 instructions simulated : ctaid=(3,9,0) tid=(1,0,0)
GPGPU-Sim PTX: 9900000 instructions simulated : ctaid=(3,2,0) tid=(16,1,0)
GPGPU-Sim PTX: 10000000 instructions simulated : ctaid=(1,1,0) tid=(27,2,0)
GPGPU-Sim PTX: 10100000 instructions simulated : ctaid=(2,17,0) tid=(5,1,0)
GPGPU-Sim uArch: cycles simulated: 21500  inst.: 9093203 (ipc=422.9) sim_rate=324757 (inst/sec) elapsed = 0:0:00:28 / Tue Apr 16 16:56:58 2019
GPGPU-Sim PTX: 10200000 instructions simulated : ctaid=(1,5,0) tid=(17,0,0)
GPGPU-Sim PTX: 10300000 instructions simulated : ctaid=(0,19,0) tid=(4,3,0)
GPGPU-Sim PTX: 10400000 instructions simulated : ctaid=(0,12,0) tid=(22,0,0)
GPGPU-Sim uArch: cycles simulated: 22000  inst.: 9376965 (ipc=426.2) sim_rate=323343 (inst/sec) elapsed = 0:0:00:29 / Tue Apr 16 16:56:59 2019
GPGPU-Sim PTX: 10500000 instructions simulated : ctaid=(1,22,0) tid=(29,0,0)
GPGPU-Sim PTX: 10600000 instructions simulated : ctaid=(2,12,0) tid=(29,2,0)
GPGPU-Sim PTX: 10700000 instructions simulated : ctaid=(3,7,0) tid=(16,1,0)
GPGPU-Sim PTX: 10800000 instructions simulated : ctaid=(1,14,0) tid=(18,1,0)
GPGPU-Sim PTX: 10900000 instructions simulated : ctaid=(3,11,0) tid=(0,1,0)
GPGPU-Sim PTX: 11000000 instructions simulated : ctaid=(3,17,0) tid=(27,3,0)
GPGPU-Sim uArch: cycles simulated: 23000  inst.: 9889960 (ipc=430.0) sim_rate=329665 (inst/sec) elapsed = 0:0:00:30 / Tue Apr 16 16:57:00 2019
GPGPU-Sim PTX: 11100000 instructions simulated : ctaid=(3,6,0) tid=(2,1,0)
GPGPU-Sim PTX: 11200000 instructions simulated : ctaid=(2,16,0) tid=(27,2,0)
GPGPU-Sim PTX: 11300000 instructions simulated : ctaid=(1,20,0) tid=(0,2,0)
GPGPU-Sim uArch: cycles simulated: 23500  inst.: 10160709 (ipc=432.4) sim_rate=327764 (inst/sec) elapsed = 0:0:00:31 / Tue Apr 16 16:57:01 2019
GPGPU-Sim PTX: 11400000 instructions simulated : ctaid=(1,21,0) tid=(17,1,0)
GPGPU-Sim PTX: 11500000 instructions simulated : ctaid=(1,22,0) tid=(29,0,0)
GPGPU-Sim PTX: 11600000 instructions simulated : ctaid=(0,14,0) tid=(31,0,0)
GPGPU-Sim uArch: cycles simulated: 24000  inst.: 10404752 (ipc=433.5) sim_rate=325148 (inst/sec) elapsed = 0:0:00:32 / Tue Apr 16 16:57:02 2019
GPGPU-Sim PTX: 11700000 instructions simulated : ctaid=(2,16,0) tid=(31,0,0)
GPGPU-Sim PTX: 11800000 instructions simulated : ctaid=(1,16,0) tid=(26,1,0)
GPGPU-Sim PTX: 11900000 instructions simulated : ctaid=(2,8,0) tid=(26,1,0)
GPGPU-Sim PTX: 12000000 instructions simulated : ctaid=(2,16,0) tid=(6,1,0)
GPGPU-Sim PTX: 12100000 instructions simulated : ctaid=(2,22,0) tid=(5,2,0)
GPGPU-Sim PTX: 12200000 instructions simulated : ctaid=(2,5,0) tid=(12,1,0)
GPGPU-Sim uArch: cycles simulated: 25000  inst.: 10926421 (ipc=437.1) sim_rate=331103 (inst/sec) elapsed = 0:0:00:33 / Tue Apr 16 16:57:03 2019
GPGPU-Sim PTX: 12300000 instructions simulated : ctaid=(3,7,0) tid=(27,2,0)
GPGPU-Sim PTX: 12400000 instructions simulated : ctaid=(2,6,0) tid=(7,1,0)
GPGPU-Sim PTX: 12500000 instructions simulated : ctaid=(0,1,0) tid=(25,3,0)
GPGPU-Sim uArch: cycles simulated: 25500  inst.: 11181557 (ipc=438.5) sim_rate=328869 (inst/sec) elapsed = 0:0:00:34 / Tue Apr 16 16:57:04 2019
GPGPU-Sim PTX: 12600000 instructions simulated : ctaid=(0,11,0) tid=(7,3,0)
GPGPU-Sim PTX: 12700000 instructions simulated : ctaid=(1,2,0) tid=(26,2,0)
GPGPU-Sim uArch: cycles simulated: 26000  inst.: 11408488 (ipc=438.8) sim_rate=325956 (inst/sec) elapsed = 0:0:00:35 / Tue Apr 16 16:57:05 2019
GPGPU-Sim PTX: 12800000 instructions simulated : ctaid=(2,2,0) tid=(18,0,0)
GPGPU-Sim PTX: 12900000 instructions simulated : ctaid=(2,18,0) tid=(8,0,0)
GPGPU-Sim PTX: 13000000 instructions simulated : ctaid=(1,18,0) tid=(11,2,0)
GPGPU-Sim PTX: 13100000 instructions simulated : ctaid=(0,14,0) tid=(20,2,0)
GPGPU-Sim PTX: 13200000 instructions simulated : ctaid=(1,7,0) tid=(23,1,0)
GPGPU-Sim PTX: 13300000 instructions simulated : ctaid=(0,2,0) tid=(21,0,0)
GPGPU-Sim uArch: cycles simulated: 27000  inst.: 11945114 (ipc=442.4) sim_rate=331808 (inst/sec) elapsed = 0:0:00:36 / Tue Apr 16 16:57:06 2019
GPGPU-Sim PTX: 13400000 instructions simulated : ctaid=(3,24,0) tid=(3,3,0)
GPGPU-Sim PTX: 13500000 instructions simulated : ctaid=(2,5,0) tid=(7,3,0)
GPGPU-Sim PTX: 13600000 instructions simulated : ctaid=(2,17,0) tid=(13,0,0)
GPGPU-Sim uArch: cycles simulated: 27500  inst.: 12174393 (ipc=442.7) sim_rate=329037 (inst/sec) elapsed = 0:0:00:37 / Tue Apr 16 16:57:07 2019
GPGPU-Sim PTX: 13700000 instructions simulated : ctaid=(1,5,0) tid=(24,1,0)
GPGPU-Sim PTX: 13800000 instructions simulated : ctaid=(0,13,0) tid=(23,0,0)
GPGPU-Sim PTX: 13900000 instructions simulated : ctaid=(1,14,0) tid=(8,2,0)
GPGPU-Sim uArch: cycles simulated: 28000  inst.: 12435700 (ipc=444.1) sim_rate=327255 (inst/sec) elapsed = 0:0:00:38 / Tue Apr 16 16:57:08 2019
GPGPU-Sim PTX: 14000000 instructions simulated : ctaid=(0,2,0) tid=(11,1,0)
GPGPU-Sim PTX: 14100000 instructions simulated : ctaid=(1,5,0) tid=(8,0,0)
GPGPU-Sim PTX: 14200000 instructions simulated : ctaid=(2,8,0) tid=(15,2,0)
GPGPU-Sim PTX: 14300000 instructions simulated : ctaid=(0,11,0) tid=(14,0,0)
GPGPU-Sim PTX: 14400000 instructions simulated : ctaid=(2,19,0) tid=(20,1,0)
GPGPU-Sim uArch: cycles simulated: 29000  inst.: 12955504 (ipc=446.7) sim_rate=332192 (inst/sec) elapsed = 0:0:00:39 / Tue Apr 16 16:57:09 2019
GPGPU-Sim PTX: 14500000 instructions simulated : ctaid=(0,9,0) tid=(15,2,0)
GPGPU-Sim PTX: 14600000 instructions simulated : ctaid=(0,9,0) tid=(26,0,0)
GPGPU-Sim PTX: 14700000 instructions simulated : ctaid=(1,17,0) tid=(10,2,0)
GPGPU-Sim uArch: cycles simulated: 29500  inst.: 13201466 (ipc=447.5) sim_rate=330036 (inst/sec) elapsed = 0:0:00:40 / Tue Apr 16 16:57:10 2019
GPGPU-Sim PTX: 14800000 instructions simulated : ctaid=(1,19,0) tid=(3,1,0)
GPGPU-Sim PTX: 14900000 instructions simulated : ctaid=(1,11,0) tid=(10,2,0)
GPGPU-Sim PTX: 15000000 instructions simulated : ctaid=(0,2,0) tid=(0,3,0)
GPGPU-Sim PTX: 15100000 instructions simulated : ctaid=(0,15,0) tid=(1,2,0)
GPGPU-Sim PTX: 15200000 instructions simulated : ctaid=(2,2,0) tid=(13,1,0)
GPGPU-Sim PTX: 15300000 instructions simulated : ctaid=(1,7,0) tid=(13,2,0)
GPGPU-Sim uArch: cycles simulated: 30500  inst.: 13735855 (ipc=450.4) sim_rate=335020 (inst/sec) elapsed = 0:0:00:41 / Tue Apr 16 16:57:11 2019
GPGPU-Sim PTX: 15400000 instructions simulated : ctaid=(2,24,0) tid=(24,0,0)
GPGPU-Sim PTX: 15500000 instructions simulated : ctaid=(0,9,0) tid=(24,2,0)
GPGPU-Sim PTX: 15600000 instructions simulated : ctaid=(3,10,0) tid=(28,2,0)
GPGPU-Sim uArch: cycles simulated: 31000  inst.: 13987443 (ipc=451.2) sim_rate=333034 (inst/sec) elapsed = 0:0:00:42 / Tue Apr 16 16:57:12 2019
GPGPU-Sim PTX: 15700000 instructions simulated : ctaid=(2,11,0) tid=(6,0,0)
GPGPU-Sim PTX: 15800000 instructions simulated : ctaid=(3,15,0) tid=(18,0,0)
GPGPU-Sim PTX: 15900000 instructions simulated : ctaid=(0,7,0) tid=(5,2,0)
GPGPU-Sim uArch: cycles simulated: 31500  inst.: 14241877 (ipc=452.1) sim_rate=331206 (inst/sec) elapsed = 0:0:00:43 / Tue Apr 16 16:57:13 2019
GPGPU-Sim PTX: 16000000 instructions simulated : ctaid=(2,12,0) tid=(22,3,0)
GPGPU-Sim PTX: 16100000 instructions simulated : ctaid=(0,8,0) tid=(2,3,0)
GPGPU-Sim PTX: 16200000 instructions simulated : ctaid=(2,1,0) tid=(15,2,0)
GPGPU-Sim PTX: 16300000 instructions simulated : ctaid=(2,7,0) tid=(0,1,0)
GPGPU-Sim PTX: 16400000 instructions simulated : ctaid=(1,4,0) tid=(29,3,0)
GPGPU-Sim PTX: 16500000 instructions simulated : ctaid=(2,15,0) tid=(24,1,0)
GPGPU-Sim uArch: cycles simulated: 32500  inst.: 14748799 (ipc=453.8) sim_rate=335199 (inst/sec) elapsed = 0:0:00:44 / Tue Apr 16 16:57:14 2019
GPGPU-Sim PTX: 16600000 instructions simulated : ctaid=(0,7,0) tid=(7,3,0)
GPGPU-Sim PTX: 16700000 instructions simulated : ctaid=(1,18,0) tid=(24,0,0)
GPGPU-Sim PTX: 16800000 instructions simulated : ctaid=(0,3,0) tid=(21,2,0)
GPGPU-Sim uArch: cycles simulated: 33000  inst.: 15020069 (ipc=455.2) sim_rate=333779 (inst/sec) elapsed = 0:0:00:45 / Tue Apr 16 16:57:15 2019
GPGPU-Sim PTX: 16900000 instructions simulated : ctaid=(0,18,0) tid=(12,1,0)
GPGPU-Sim PTX: 17000000 instructions simulated : ctaid=(3,6,0) tid=(1,3,0)
GPGPU-Sim PTX: 17100000 instructions simulated : ctaid=(1,6,0) tid=(27,3,0)
GPGPU-Sim uArch: cycles simulated: 33500  inst.: 15301381 (ipc=456.8) sim_rate=332638 (inst/sec) elapsed = 0:0:00:46 / Tue Apr 16 16:57:16 2019
GPGPU-Sim PTX: 17200000 instructions simulated : ctaid=(2,12,0) tid=(14,0,0)
GPGPU-Sim PTX: 17300000 instructions simulated : ctaid=(2,11,0) tid=(15,1,0)
GPGPU-Sim PTX: 17400000 instructions simulated : ctaid=(0,11,0) tid=(12,1,0)
GPGPU-Sim PTX: 17500000 instructions simulated : ctaid=(0,24,0) tid=(10,1,0)
GPGPU-Sim PTX: 17600000 instructions simulated : ctaid=(1,10,0) tid=(4,3,0)
GPGPU-Sim PTX: 17700000 instructions simulated : ctaid=(1,22,0) tid=(4,2,0)
GPGPU-Sim uArch: cycles simulated: 34500  inst.: 15816574 (ipc=458.5) sim_rate=336522 (inst/sec) elapsed = 0:0:00:47 / Tue Apr 16 16:57:17 2019
GPGPU-Sim PTX: 17800000 instructions simulated : ctaid=(2,9,0) tid=(5,3,0)
GPGPU-Sim PTX: 17900000 instructions simulated : ctaid=(3,7,0) tid=(2,1,0)
GPGPU-Sim PTX: 18000000 instructions simulated : ctaid=(0,1,0) tid=(0,3,0)
GPGPU-Sim uArch: cycles simulated: 35000  inst.: 16078418 (ipc=459.4) sim_rate=334967 (inst/sec) elapsed = 0:0:00:48 / Tue Apr 16 16:57:18 2019
GPGPU-Sim PTX: 18100000 instructions simulated : ctaid=(1,7,0) tid=(0,2,0)
GPGPU-Sim PTX: 18200000 instructions simulated : ctaid=(2,14,0) tid=(12,0,0)
GPGPU-Sim uArch: cycles simulated: 35500  inst.: 16291872 (ipc=458.9) sim_rate=332487 (inst/sec) elapsed = 0:0:00:49 / Tue Apr 16 16:57:19 2019
GPGPU-Sim PTX: 18300000 instructions simulated : ctaid=(2,3,0) tid=(9,1,0)
GPGPU-Sim PTX: 18400000 instructions simulated : ctaid=(2,5,0) tid=(8,3,0)
GPGPU-Sim PTX: 18500000 instructions simulated : ctaid=(3,23,0) tid=(1,2,0)
GPGPU-Sim PTX: 18600000 instructions simulated : ctaid=(0,13,0) tid=(18,3,0)
GPGPU-Sim PTX: 18700000 instructions simulated : ctaid=(0,4,0) tid=(7,0,0)
GPGPU-Sim PTX: 18800000 instructions simulated : ctaid=(2,6,0) tid=(9,0,0)
GPGPU-Sim uArch: cycles simulated: 36500  inst.: 16836888 (ipc=461.3) sim_rate=336737 (inst/sec) elapsed = 0:0:00:50 / Tue Apr 16 16:57:20 2019
GPGPU-Sim PTX: 18900000 instructions simulated : ctaid=(0,10,0) tid=(26,0,0)
GPGPU-Sim PTX: 19000000 instructions simulated : ctaid=(0,2,0) tid=(3,0,0)
GPGPU-Sim PTX: 19100000 instructions simulated : ctaid=(0,2,0) tid=(12,3,0)
GPGPU-Sim uArch: cycles simulated: 37000  inst.: 17084002 (ipc=461.7) sim_rate=334980 (inst/sec) elapsed = 0:0:00:51 / Tue Apr 16 16:57:21 2019
GPGPU-Sim PTX: 19200000 instructions simulated : ctaid=(2,13,0) tid=(30,1,0)
GPGPU-Sim PTX: 19300000 instructions simulated : ctaid=(0,14,0) tid=(25,2,0)
GPGPU-Sim PTX: 19400000 instructions simulated : ctaid=(2,5,0) tid=(16,0,0)
GPGPU-Sim PTX: 19500000 instructions simulated : ctaid=(1,18,0) tid=(13,2,0)
GPGPU-Sim PTX: 19600000 instructions simulated : ctaid=(3,11,0) tid=(13,3,0)
GPGPU-Sim PTX: 19700000 instructions simulated : ctaid=(1,12,0) tid=(2,0,0)
GPGPU-Sim uArch: cycles simulated: 38000  inst.: 17621988 (ipc=463.7) sim_rate=338884 (inst/sec) elapsed = 0:0:00:52 / Tue Apr 16 16:57:22 2019
GPGPU-Sim PTX: 19800000 instructions simulated : ctaid=(1,23,0) tid=(27,1,0)
GPGPU-Sim PTX: 19900000 instructions simulated : ctaid=(1,20,0) tid=(15,0,0)
GPGPU-Sim PTX: 20000000 instructions simulated : ctaid=(2,9,0) tid=(14,0,0)
GPGPU-Sim uArch: cycles simulated: 38500  inst.: 17891455 (ipc=464.7) sim_rate=337574 (inst/sec) elapsed = 0:0:00:53 / Tue Apr 16 16:57:23 2019
GPGPU-Sim PTX: 20100000 instructions simulated : ctaid=(0,1,0) tid=(24,0,0)
GPGPU-Sim PTX: 20200000 instructions simulated : ctaid=(2,0,0) tid=(25,1,0)
GPGPU-Sim PTX: 20300000 instructions simulated : ctaid=(1,2,0) tid=(13,0,0)
GPGPU-Sim uArch: cycles simulated: 39000  inst.: 18142642 (ipc=465.2) sim_rate=335974 (inst/sec) elapsed = 0:0:00:54 / Tue Apr 16 16:57:24 2019
GPGPU-Sim PTX: 20400000 instructions simulated : ctaid=(2,19,0) tid=(22,3,0)
GPGPU-Sim PTX: 20500000 instructions simulated : ctaid=(2,11,0) tid=(6,2,0)
GPGPU-Sim PTX: 20600000 instructions simulated : ctaid=(1,10,0) tid=(6,1,0)
GPGPU-Sim PTX: 20700000 instructions simulated : ctaid=(3,20,0) tid=(7,3,0)
GPGPU-Sim PTX: 20800000 instructions simulated : ctaid=(2,11,0) tid=(29,2,0)
GPGPU-Sim PTX: 20900000 instructions simulated : ctaid=(2,1,0) tid=(30,3,0)
GPGPU-Sim uArch: cycles simulated: 40000  inst.: 18685712 (ipc=467.1) sim_rate=339740 (inst/sec) elapsed = 0:0:00:55 / Tue Apr 16 16:57:25 2019
GPGPU-Sim PTX: 21000000 instructions simulated : ctaid=(2,6,0) tid=(14,1,0)
GPGPU-Sim PTX: 21100000 instructions simulated : ctaid=(0,6,0) tid=(29,3,0)
GPGPU-Sim PTX: 21200000 instructions simulated : ctaid=(0,2,0) tid=(20,0,0)
GPGPU-Sim uArch: cycles simulated: 40500  inst.: 18940322 (ipc=467.7) sim_rate=338220 (inst/sec) elapsed = 0:0:00:56 / Tue Apr 16 16:57:26 2019
GPGPU-Sim PTX: 21300000 instructions simulated : ctaid=(0,24,0) tid=(22,3,0)
GPGPU-Sim PTX: 21400000 instructions simulated : ctaid=(2,20,0) tid=(20,3,0)
GPGPU-Sim PTX: 21500000 instructions simulated : ctaid=(0,16,0) tid=(16,1,0)
GPGPU-Sim uArch: cycles simulated: 41000  inst.: 19193001 (ipc=468.1) sim_rate=336719 (inst/sec) elapsed = 0:0:00:57 / Tue Apr 16 16:57:27 2019
GPGPU-Sim PTX: 21600000 instructions simulated : ctaid=(0,2,0) tid=(21,1,0)
GPGPU-Sim PTX: 21700000 instructions simulated : ctaid=(0,20,0) tid=(6,2,0)
GPGPU-Sim PTX: 21800000 instructions simulated : ctaid=(2,2,0) tid=(28,0,0)
GPGPU-Sim PTX: 21900000 instructions simulated : ctaid=(0,19,0) tid=(1,3,0)
GPGPU-Sim PTX: 22000000 instructions simulated : ctaid=(2,10,0) tid=(22,2,0)
GPGPU-Sim PTX: 22100000 instructions simulated : ctaid=(2,1,0) tid=(7,2,0)
GPGPU-Sim uArch: cycles simulated: 42000  inst.: 19732523 (ipc=469.8) sim_rate=340215 (inst/sec) elapsed = 0:0:00:58 / Tue Apr 16 16:57:28 2019
GPGPU-Sim PTX: 22200000 instructions simulated : ctaid=(1,19,0) tid=(8,1,0)
GPGPU-Sim PTX: 22300000 instructions simulated : ctaid=(0,4,0) tid=(21,0,0)
GPGPU-Sim PTX: 22400000 instructions simulated : ctaid=(1,14,0) tid=(9,3,0)
GPGPU-Sim uArch: cycles simulated: 42500  inst.: 19996464 (ipc=470.5) sim_rate=338923 (inst/sec) elapsed = 0:0:00:59 / Tue Apr 16 16:57:29 2019
GPGPU-Sim PTX: 22500000 instructions simulated : ctaid=(1,15,0) tid=(3,3,0)
GPGPU-Sim PTX: 22600000 instructions simulated : ctaid=(1,23,0) tid=(3,1,0)
GPGPU-Sim PTX: 22700000 instructions simulated : ctaid=(1,7,0) tid=(3,3,0)
GPGPU-Sim uArch: cycles simulated: 43000  inst.: 20262280 (ipc=471.2) sim_rate=337704 (inst/sec) elapsed = 0:0:01:00 / Tue Apr 16 16:57:30 2019
GPGPU-Sim PTX: 22800000 instructions simulated : ctaid=(0,10,0) tid=(5,0,0)
GPGPU-Sim PTX: 22900000 instructions simulated : ctaid=(1,9,0) tid=(30,1,0)
GPGPU-Sim PTX: 23000000 instructions simulated : ctaid=(2,12,0) tid=(17,0,0)
GPGPU-Sim PTX: 23100000 instructions simulated : ctaid=(1,5,0) tid=(13,3,0)
GPGPU-Sim PTX: 23200000 instructions simulated : ctaid=(2,18,0) tid=(2,1,0)
GPGPU-Sim PTX: 23300000 instructions simulated : ctaid=(0,3,0) tid=(8,0,0)
GPGPU-Sim uArch: cycles simulated: 44000  inst.: 20785390 (ipc=472.4) sim_rate=340744 (inst/sec) elapsed = 0:0:01:01 / Tue Apr 16 16:57:31 2019
GPGPU-Sim PTX: 23400000 instructions simulated : ctaid=(1,17,0) tid=(31,1,0)
GPGPU-Sim PTX: 23500000 instructions simulated : ctaid=(2,18,0) tid=(30,2,0)
GPGPU-Sim PTX: 23600000 instructions simulated : ctaid=(1,22,0) tid=(24,1,0)
GPGPU-Sim uArch: cycles simulated: 44500  inst.: 21050752 (ipc=473.1) sim_rate=339528 (inst/sec) elapsed = 0:0:01:02 / Tue Apr 16 16:57:32 2019
GPGPU-Sim PTX: 23700000 instructions simulated : ctaid=(2,11,0) tid=(9,0,0)
GPGPU-Sim PTX: 23800000 instructions simulated : ctaid=(2,5,0) tid=(14,0,0)
GPGPU-Sim uArch: cycles simulated: 45000  inst.: 21306852 (ipc=473.5) sim_rate=338204 (inst/sec) elapsed = 0:0:01:03 / Tue Apr 16 16:57:33 2019
GPGPU-Sim PTX: 23900000 instructions simulated : ctaid=(1,16,0) tid=(10,3,0)
GPGPU-Sim PTX: 24000000 instructions simulated : ctaid=(2,6,0) tid=(13,0,0)
GPGPU-Sim PTX: 24100000 instructions simulated : ctaid=(1,11,0) tid=(18,1,0)
GPGPU-Sim PTX: 24200000 instructions simulated : ctaid=(1,15,0) tid=(9,2,0)
GPGPU-Sim PTX: 24300000 instructions simulated : ctaid=(2,10,0) tid=(22,3,0)
GPGPU-Sim PTX: 24400000 instructions simulated : ctaid=(0,4,0) tid=(9,2,0)
GPGPU-Sim PTX: 24500000 instructions simulated : ctaid=(1,17,0) tid=(19,3,0)
GPGPU-Sim uArch: cycles simulated: 46000  inst.: 21852870 (ipc=475.1) sim_rate=341451 (inst/sec) elapsed = 0:0:01:04 / Tue Apr 16 16:57:34 2019
GPGPU-Sim PTX: 24600000 instructions simulated : ctaid=(2,11,0) tid=(24,2,0)
GPGPU-Sim PTX: 24700000 instructions simulated : ctaid=(2,1,0) tid=(10,1,0)
GPGPU-Sim PTX: 24800000 instructions simulated : ctaid=(2,4,0) tid=(3,2,0)
GPGPU-Sim uArch: cycles simulated: 46500  inst.: 22129648 (ipc=475.9) sim_rate=340456 (inst/sec) elapsed = 0:0:01:05 / Tue Apr 16 16:57:35 2019
GPGPU-Sim PTX: 24900000 instructions simulated : ctaid=(1,21,0) tid=(5,0,0)
GPGPU-Sim PTX: 25000000 instructions simulated : ctaid=(2,22,0) tid=(3,0,0)
GPGPU-Sim uArch: cycles simulated: 47000  inst.: 22360302 (ipc=475.8) sim_rate=338792 (inst/sec) elapsed = 0:0:01:06 / Tue Apr 16 16:57:36 2019
GPGPU-Sim PTX: 25100000 instructions simulated : ctaid=(0,16,0) tid=(23,1,0)
GPGPU-Sim PTX: 25200000 instructions simulated : ctaid=(1,21,0) tid=(26,0,0)
GPGPU-Sim PTX: 25300000 instructions simulated : ctaid=(1,14,0) tid=(17,1,0)
GPGPU-Sim PTX: 25400000 instructions simulated : ctaid=(0,23,0) tid=(12,2,0)
GPGPU-Sim PTX: 25500000 instructions simulated : ctaid=(1,13,0) tid=(14,2,0)
GPGPU-Sim PTX: 25600000 instructions simulated : ctaid=(1,20,0) tid=(5,0,0)
GPGPU-Sim uArch: cycles simulated: 48000  inst.: 22903274 (ipc=477.2) sim_rate=341839 (inst/sec) elapsed = 0:0:01:07 / Tue Apr 16 16:57:37 2019
GPGPU-Sim PTX: 25700000 instructions simulated : ctaid=(2,2,0) tid=(28,1,0)
GPGPU-Sim PTX: 25800000 instructions simulated : ctaid=(1,12,0) tid=(2,0,0)
GPGPU-Sim PTX: 25900000 instructions simulated : ctaid=(1,19,0) tid=(25,2,0)
GPGPU-Sim uArch: cycles simulated: 48500  inst.: 23145928 (ipc=477.2) sim_rate=340381 (inst/sec) elapsed = 0:0:01:08 / Tue Apr 16 16:57:38 2019
GPGPU-Sim PTX: 26000000 instructions simulated : ctaid=(2,9,0) tid=(10,1,0)
GPGPU-Sim PTX: 26100000 instructions simulated : ctaid=(2,12,0) tid=(1,3,0)
GPGPU-Sim PTX: 26200000 instructions simulated : ctaid=(2,0,0) tid=(3,1,0)
GPGPU-Sim uArch: cycles simulated: 49000  inst.: 23432471 (ipc=478.2) sim_rate=339601 (inst/sec) elapsed = 0:0:01:09 / Tue Apr 16 16:57:39 2019
GPGPU-Sim PTX: 26300000 instructions simulated : ctaid=(0,20,0) tid=(29,2,0)
GPGPU-Sim PTX: 26400000 instructions simulated : ctaid=(0,20,0) tid=(11,3,0)
GPGPU-Sim PTX: 26500000 instructions simulated : ctaid=(2,16,0) tid=(1,3,0)
GPGPU-Sim uArch: cycles simulated: 49500  inst.: 23688986 (ipc=478.6) sim_rate=338414 (inst/sec) elapsed = 0:0:01:10 / Tue Apr 16 16:57:40 2019
GPGPU-Sim PTX: 26600000 instructions simulated : ctaid=(0,17,0) tid=(6,3,0)
GPGPU-Sim PTX: 26700000 instructions simulated : ctaid=(2,16,0) tid=(6,1,0)
GPGPU-Sim PTX: 26800000 instructions simulated : ctaid=(2,18,0) tid=(21,1,0)
GPGPU-Sim PTX: 26900000 instructions simulated : ctaid=(2,20,0) tid=(6,0,0)
GPGPU-Sim PTX: 27000000 instructions simulated : ctaid=(1,8,0) tid=(12,3,0)
GPGPU-Sim PTX: 27100000 instructions simulated : ctaid=(1,13,0) tid=(11,3,0)
GPGPU-Sim uArch: cycles simulated: 50500  inst.: 24233313 (ipc=479.9) sim_rate=341314 (inst/sec) elapsed = 0:0:01:11 / Tue Apr 16 16:57:41 2019
GPGPU-Sim PTX: 27200000 instructions simulated : ctaid=(0,1,0) tid=(4,0,0)
GPGPU-Sim PTX: 27300000 instructions simulated : ctaid=(0,15,0) tid=(11,0,0)
GPGPU-Sim PTX: 27400000 instructions simulated : ctaid=(0,6,0) tid=(5,2,0)
GPGPU-Sim uArch: cycles simulated: 51000  inst.: 24462859 (ipc=479.7) sim_rate=339761 (inst/sec) elapsed = 0:0:01:12 / Tue Apr 16 16:57:42 2019
GPGPU-Sim PTX: 27500000 instructions simulated : ctaid=(1,2,0) tid=(19,0,0)
GPGPU-Sim PTX: 27600000 instructions simulated : ctaid=(1,1,0) tid=(23,2,0)
GPGPU-Sim PTX: 27700000 instructions simulated : ctaid=(0,6,0) tid=(27,2,0)
GPGPU-Sim PTX: 27800000 instructions simulated : ctaid=(3,7,0) tid=(20,1,0)
GPGPU-Sim PTX: 27900000 instructions simulated : ctaid=(0,21,0) tid=(26,0,0)
GPGPU-Sim PTX: 28000000 instructions simulated : ctaid=(1,21,0) tid=(1,0,0)
GPGPU-Sim uArch: cycles simulated: 52000  inst.: 25019600 (ipc=481.1) sim_rate=342734 (inst/sec) elapsed = 0:0:01:13 / Tue Apr 16 16:57:43 2019
GPGPU-Sim PTX: 28100000 instructions simulated : ctaid=(0,19,0) tid=(19,0,0)
GPGPU-Sim PTX: 28200000 instructions simulated : ctaid=(3,16,0) tid=(2,0,0)
GPGPU-Sim PTX: 28300000 instructions simulated : ctaid=(2,6,0) tid=(18,1,0)
GPGPU-Sim uArch: cycles simulated: 52500  inst.: 25249842 (ipc=480.9) sim_rate=341214 (inst/sec) elapsed = 0:0:01:14 / Tue Apr 16 16:57:44 2019
GPGPU-Sim PTX: 28400000 instructions simulated : ctaid=(0,6,0) tid=(19,2,0)
GPGPU-Sim PTX: 28500000 instructions simulated : ctaid=(1,6,0) tid=(13,0,0)
GPGPU-Sim PTX: 28600000 instructions simulated : ctaid=(2,16,0) tid=(27,0,0)
GPGPU-Sim uArch: cycles simulated: 53000  inst.: 25541556 (ipc=481.9) sim_rate=340554 (inst/sec) elapsed = 0:0:01:15 / Tue Apr 16 16:57:45 2019
GPGPU-Sim PTX: 28700000 instructions simulated : ctaid=(0,16,0) tid=(26,0,0)
GPGPU-Sim PTX: 28800000 instructions simulated : ctaid=(0,12,0) tid=(16,3,0)
GPGPU-Sim PTX: 28900000 instructions simulated : ctaid=(1,15,0) tid=(24,1,0)
GPGPU-Sim PTX: 29000000 instructions simulated : ctaid=(1,17,0) tid=(27,0,0)
GPGPU-Sim PTX: 29100000 instructions simulated : ctaid=(2,23,0) tid=(7,3,0)
GPGPU-Sim PTX: 29200000 instructions simulated : ctaid=(0,2,0) tid=(12,2,0)
GPGPU-Sim uArch: cycles simulated: 54000  inst.: 26057031 (ipc=482.5) sim_rate=342855 (inst/sec) elapsed = 0:0:01:16 / Tue Apr 16 16:57:46 2019
GPGPU-Sim PTX: 29300000 instructions simulated : ctaid=(1,23,0) tid=(5,2,0)
GPGPU-Sim PTX: 29400000 instructions simulated : ctaid=(1,19,0) tid=(11,3,0)
GPGPU-Sim PTX: 29500000 instructions simulated : ctaid=(1,13,0) tid=(20,3,0)
GPGPU-Sim uArch: cycles simulated: 54500  inst.: 26322067 (ipc=483.0) sim_rate=341845 (inst/sec) elapsed = 0:0:01:17 / Tue Apr 16 16:57:47 2019
GPGPU-Sim PTX: 29600000 instructions simulated : ctaid=(2,7,0) tid=(21,3,0)
GPGPU-Sim PTX: 29700000 instructions simulated : ctaid=(2,0,0) tid=(30,1,0)
GPGPU-Sim PTX: 29800000 instructions simulated : ctaid=(0,21,0) tid=(19,2,0)
GPGPU-Sim uArch: cycles simulated: 55000  inst.: 26572690 (ipc=483.1) sim_rate=340675 (inst/sec) elapsed = 0:0:01:18 / Tue Apr 16 16:57:48 2019
GPGPU-Sim PTX: 29900000 instructions simulated : ctaid=(1,3,0) tid=(30,1,0)
GPGPU-Sim PTX: 30000000 instructions simulated : ctaid=(1,11,0) tid=(25,0,0)
GPGPU-Sim PTX: 30100000 instructions simulated : ctaid=(0,3,0) tid=(21,0,0)
GPGPU-Sim PTX: 30200000 instructions simulated : ctaid=(1,12,0) tid=(23,0,0)
GPGPU-Sim PTX: 30300000 instructions simulated : ctaid=(0,11,0) tid=(5,2,0)
GPGPU-Sim PTX: 30400000 instructions simulated : ctaid=(2,22,0) tid=(20,1,0)
GPGPU-Sim uArch: cycles simulated: 56000  inst.: 27104205 (ipc=484.0) sim_rate=343091 (inst/sec) elapsed = 0:0:01:19 / Tue Apr 16 16:57:49 2019
GPGPU-Sim PTX: 30500000 instructions simulated : ctaid=(1,15,0) tid=(5,0,0)
GPGPU-Sim PTX: 30600000 instructions simulated : ctaid=(1,23,0) tid=(8,2,0)
GPGPU-Sim PTX: 30700000 instructions simulated : ctaid=(2,9,0) tid=(7,3,0)
GPGPU-Sim uArch: cycles simulated: 56500  inst.: 27379702 (ipc=484.6) sim_rate=342246 (inst/sec) elapsed = 0:0:01:20 / Tue Apr 16 16:57:50 2019
GPGPU-Sim PTX: 30800000 instructions simulated : ctaid=(2,13,0) tid=(13,1,0)
GPGPU-Sim PTX: 30900000 instructions simulated : ctaid=(1,9,0) tid=(28,3,0)
GPGPU-Sim PTX: 31000000 instructions simulated : ctaid=(0,1,0) tid=(21,1,0)
GPGPU-Sim uArch: cycles simulated: 57000  inst.: 27650605 (ipc=485.1) sim_rate=341365 (inst/sec) elapsed = 0:0:01:21 / Tue Apr 16 16:57:51 2019
GPGPU-Sim PTX: 31100000 instructions simulated : ctaid=(0,11,0) tid=(15,1,0)
GPGPU-Sim PTX: 31200000 instructions simulated : ctaid=(1,8,0) tid=(28,0,0)
GPGPU-Sim PTX: 31300000 instructions simulated : ctaid=(3,12,0) tid=(18,3,0)
GPGPU-Sim PTX: 31400000 instructions simulated : ctaid=(2,11,0) tid=(3,3,0)
GPGPU-Sim PTX: 31500000 instructions simulated : ctaid=(0,4,0) tid=(17,1,0)
GPGPU-Sim PTX: 31600000 instructions simulated : ctaid=(1,17,0) tid=(16,0,0)
GPGPU-Sim uArch: cycles simulated: 58000  inst.: 28174279 (ipc=485.8) sim_rate=343588 (inst/sec) elapsed = 0:0:01:22 / Tue Apr 16 16:57:52 2019
GPGPU-Sim PTX: 31700000 instructions simulated : ctaid=(2,1,0) tid=(7,3,0)
GPGPU-Sim PTX: 31800000 instructions simulated : ctaid=(0,10,0) tid=(18,2,0)
GPGPU-Sim PTX: 31900000 instructions simulated : ctaid=(1,8,0) tid=(30,0,0)
GPGPU-Sim uArch: cycles simulated: 58500  inst.: 28439024 (ipc=486.1) sim_rate=342638 (inst/sec) elapsed = 0:0:01:23 / Tue Apr 16 16:57:53 2019
GPGPU-Sim PTX: 32000000 instructions simulated : ctaid=(3,14,0) tid=(0,1,0)
GPGPU-Sim PTX: 32100000 instructions simulated : ctaid=(2,16,0) tid=(20,1,0)
GPGPU-Sim PTX: 32200000 instructions simulated : ctaid=(0,19,0) tid=(20,2,0)
GPGPU-Sim uArch: cycles simulated: 59000  inst.: 28702952 (ipc=486.5) sim_rate=341701 (inst/sec) elapsed = 0:0:01:24 / Tue Apr 16 16:57:54 2019
GPGPU-Sim PTX: 32300000 instructions simulated : ctaid=(1,10,0) tid=(18,2,0)
GPGPU-Sim PTX: 32400000 instructions simulated : ctaid=(1,21,0) tid=(2,1,0)
GPGPU-Sim PTX: 32500000 instructions simulated : ctaid=(2,4,0) tid=(18,0,0)
GPGPU-Sim PTX: 32600000 instructions simulated : ctaid=(2,1,0) tid=(14,1,0)
GPGPU-Sim PTX: 32700000 instructions simulated : ctaid=(2,4,0) tid=(14,3,0)
GPGPU-Sim PTX: 32800000 instructions simulated : ctaid=(2,20,0) tid=(14,3,0)
GPGPU-Sim uArch: cycles simulated: 60000  inst.: 29229516 (ipc=487.2) sim_rate=343876 (inst/sec) elapsed = 0:0:01:25 / Tue Apr 16 16:57:55 2019
GPGPU-Sim PTX: 32900000 instructions simulated : ctaid=(1,19,0) tid=(20,1,0)
GPGPU-Sim PTX: 33000000 instructions simulated : ctaid=(1,20,0) tid=(27,2,0)
GPGPU-Sim PTX: 33100000 instructions simulated : ctaid=(2,14,0) tid=(8,1,0)
GPGPU-Sim uArch: cycles simulated: 60500  inst.: 29491708 (ipc=487.5) sim_rate=342926 (inst/sec) elapsed = 0:0:01:26 / Tue Apr 16 16:57:56 2019
GPGPU-Sim PTX: 33200000 instructions simulated : ctaid=(0,18,0) tid=(7,2,0)
GPGPU-Sim PTX: 33300000 instructions simulated : ctaid=(2,12,0) tid=(20,3,0)
GPGPU-Sim PTX: 33400000 instructions simulated : ctaid=(1,12,0) tid=(9,3,0)
GPGPU-Sim PTX: 33500000 instructions simulated : ctaid=(2,9,0) tid=(10,2,0)
GPGPU-Sim PTX: 33600000 instructions simulated : ctaid=(1,6,0) tid=(0,2,0)
GPGPU-Sim PTX: 33700000 instructions simulated : ctaid=(0,23,0) tid=(31,0,0)
GPGPU-Sim uArch: cycles simulated: 61500  inst.: 30025023 (ipc=488.2) sim_rate=345115 (inst/sec) elapsed = 0:0:01:27 / Tue Apr 16 16:57:57 2019
GPGPU-Sim PTX: 33800000 instructions simulated : ctaid=(1,12,0) tid=(15,0,0)
GPGPU-Sim PTX: 33900000 instructions simulated : ctaid=(2,3,0) tid=(24,1,0)
GPGPU-Sim uArch: cycles simulated: 62000  inst.: 30274800 (ipc=488.3) sim_rate=344031 (inst/sec) elapsed = 0:0:01:28 / Tue Apr 16 16:57:58 2019
GPGPU-Sim PTX: 34000000 instructions simulated : ctaid=(2,20,0) tid=(23,3,0)
GPGPU-Sim PTX: 34100000 instructions simulated : ctaid=(3,7,0) tid=(2,2,0)
GPGPU-Sim PTX: 34200000 instructions simulated : ctaid=(1,17,0) tid=(29,1,0)
GPGPU-Sim uArch: cycles simulated: 62500  inst.: 30509748 (ipc=488.2) sim_rate=342806 (inst/sec) elapsed = 0:0:01:29 / Tue Apr 16 16:57:59 2019
GPGPU-Sim PTX: 34300000 instructions simulated : ctaid=(1,9,0) tid=(17,2,0)
GPGPU-Sim PTX: 34400000 instructions simulated : ctaid=(2,11,0) tid=(1,0,0)
GPGPU-Sim PTX: 34500000 instructions simulated : ctaid=(3,7,0) tid=(27,2,0)
GPGPU-Sim PTX: 34600000 instructions simulated : ctaid=(2,11,0) tid=(15,1,0)
GPGPU-Sim PTX: 34700000 instructions simulated : ctaid=(1,23,0) tid=(3,2,0)
GPGPU-Sim PTX: 34800000 instructions simulated : ctaid=(1,5,0) tid=(16,1,0)
GPGPU-Sim uArch: cycles simulated: 63500  inst.: 31060247 (ipc=489.1) sim_rate=345113 (inst/sec) elapsed = 0:0:01:30 / Tue Apr 16 16:58:00 2019
GPGPU-Sim PTX: 34900000 instructions simulated : ctaid=(1,21,0) tid=(15,1,0)
GPGPU-Sim PTX: 35000000 instructions simulated : ctaid=(1,0,0) tid=(14,1,0)
GPGPU-Sim PTX: 35100000 instructions simulated : ctaid=(1,1,0) tid=(5,3,0)
GPGPU-Sim uArch: cycles simulated: 64000  inst.: 31301145 (ipc=489.1) sim_rate=343968 (inst/sec) elapsed = 0:0:01:31 / Tue Apr 16 16:58:01 2019
GPGPU-Sim PTX: 35200000 instructions simulated : ctaid=(2,11,0) tid=(7,1,0)
GPGPU-Sim PTX: 35300000 instructions simulated : ctaid=(0,7,0) tid=(12,1,0)
GPGPU-Sim PTX: 35400000 instructions simulated : ctaid=(2,22,0) tid=(27,0,0)
GPGPU-Sim uArch: cycles simulated: 64500  inst.: 31560436 (ipc=489.3) sim_rate=343048 (inst/sec) elapsed = 0:0:01:32 / Tue Apr 16 16:58:02 2019
GPGPU-Sim PTX: 35500000 instructions simulated : ctaid=(1,2,0) tid=(22,1,0)
GPGPU-Sim PTX: 35600000 instructions simulated : ctaid=(2,12,0) tid=(0,1,0)
GPGPU-Sim PTX: 35700000 instructions simulated : ctaid=(0,7,0) tid=(1,2,0)
GPGPU-Sim PTX: 35800000 instructions simulated : ctaid=(0,23,0) tid=(16,2,0)
GPGPU-Sim PTX: 35900000 instructions simulated : ctaid=(2,17,0) tid=(20,3,0)
GPGPU-Sim PTX: 36000000 instructions simulated : ctaid=(0,14,0) tid=(25,0,0)
GPGPU-Sim uArch: cycles simulated: 65500  inst.: 32079817 (ipc=489.8) sim_rate=344944 (inst/sec) elapsed = 0:0:01:33 / Tue Apr 16 16:58:03 2019
GPGPU-Sim PTX: 36100000 instructions simulated : ctaid=(1,13,0) tid=(29,1,0)
GPGPU-Sim PTX: 36200000 instructions simulated : ctaid=(2,7,0) tid=(14,3,0)
GPGPU-Sim uArch: cycles simulated: 66000  inst.: 32312606 (ipc=489.6) sim_rate=343751 (inst/sec) elapsed = 0:0:01:34 / Tue Apr 16 16:58:04 2019
GPGPU-Sim PTX: 36300000 instructions simulated : ctaid=(1,11,0) tid=(6,3,0)
GPGPU-Sim PTX: 36400000 instructions simulated : ctaid=(0,2,0) tid=(22,1,0)
GPGPU-Sim PTX: 36500000 instructions simulated : ctaid=(1,10,0) tid=(0,0,0)
GPGPU-Sim PTX: 36600000 instructions simulated : ctaid=(2,22,0) tid=(5,0,0)
GPGPU-Sim PTX: 36700000 instructions simulated : ctaid=(0,12,0) tid=(29,1,0)
GPGPU-Sim PTX: 36800000 instructions simulated : ctaid=(3,9,0) tid=(4,2,0)
GPGPU-Sim uArch: cycles simulated: 67000  inst.: 32842726 (ipc=490.2) sim_rate=345712 (inst/sec) elapsed = 0:0:01:35 / Tue Apr 16 16:58:05 2019
GPGPU-Sim PTX: 36900000 instructions simulated : ctaid=(2,8,0) tid=(1,3,0)
GPGPU-Sim PTX: 37000000 instructions simulated : ctaid=(1,24,0) tid=(27,2,0)
GPGPU-Sim PTX: 37100000 instructions simulated : ctaid=(1,5,0) tid=(5,0,0)
GPGPU-Sim uArch: cycles simulated: 67500  inst.: 33074847 (ipc=490.0) sim_rate=344529 (inst/sec) elapsed = 0:0:01:36 / Tue Apr 16 16:58:06 2019
GPGPU-Sim PTX: 37200000 instructions simulated : ctaid=(0,16,0) tid=(1,0,0)
GPGPU-Sim PTX: 37300000 instructions simulated : ctaid=(2,3,0) tid=(30,0,0)
GPGPU-Sim PTX: 37400000 instructions simulated : ctaid=(1,20,0) tid=(25,0,0)
GPGPU-Sim uArch: cycles simulated: 68000  inst.: 33361536 (ipc=490.6) sim_rate=343933 (inst/sec) elapsed = 0:0:01:37 / Tue Apr 16 16:58:07 2019
GPGPU-Sim PTX: 37500000 instructions simulated : ctaid=(0,22,0) tid=(27,2,0)
GPGPU-Sim PTX: 37600000 instructions simulated : ctaid=(1,22,0) tid=(31,0,0)
GPGPU-Sim PTX: 37700000 instructions simulated : ctaid=(2,17,0) tid=(6,0,0)
GPGPU-Sim PTX: 37800000 instructions simulated : ctaid=(2,0,0) tid=(14,1,0)
GPGPU-Sim PTX: 37900000 instructions simulated : ctaid=(2,6,0) tid=(10,3,0)
GPGPU-Sim PTX: 38000000 instructions simulated : ctaid=(0,3,0) tid=(11,2,0)
GPGPU-Sim uArch: cycles simulated: 69000  inst.: 33866326 (ipc=490.8) sim_rate=345574 (inst/sec) elapsed = 0:0:01:38 / Tue Apr 16 16:58:08 2019
GPGPU-Sim PTX: 38100000 instructions simulated : ctaid=(0,6,0) tid=(0,2,0)
GPGPU-Sim PTX: 38200000 instructions simulated : ctaid=(3,7,0) tid=(0,0,0)
GPGPU-Sim PTX: 38300000 instructions simulated : ctaid=(0,10,0) tid=(27,3,0)
GPGPU-Sim uArch: cycles simulated: 69500  inst.: 34142427 (ipc=491.3) sim_rate=344873 (inst/sec) elapsed = 0:0:01:39 / Tue Apr 16 16:58:09 2019
GPGPU-Sim PTX: 38400000 instructions simulated : ctaid=(1,15,0) tid=(29,1,0)
GPGPU-Sim PTX: 38500000 instructions simulated : ctaid=(2,2,0) tid=(27,1,0)
GPGPU-Sim PTX: 38600000 instructions simulated : ctaid=(0,10,0) tid=(3,1,0)
GPGPU-Sim PTX: 38700000 instructions simulated : ctaid=(2,3,0) tid=(1,0,0)
GPGPU-Sim PTX: 38800000 instructions simulated : ctaid=(0,5,0) tid=(7,2,0)
GPGPU-Sim PTX: 38900000 instructions simulated : ctaid=(3,8,0) tid=(10,0,0)
GPGPU-Sim uArch: cycles simulated: 70500  inst.: 34661792 (ipc=491.7) sim_rate=346617 (inst/sec) elapsed = 0:0:01:40 / Tue Apr 16 16:58:10 2019
GPGPU-Sim PTX: 39000000 instructions simulated : ctaid=(3,21,0) tid=(0,3,0)
GPGPU-Sim PTX: 39100000 instructions simulated : ctaid=(0,12,0) tid=(10,3,0)
GPGPU-Sim PTX: 39200000 instructions simulated : ctaid=(1,4,0) tid=(3,0,0)
GPGPU-Sim uArch: cycles simulated: 71000  inst.: 34935501 (ipc=492.0) sim_rate=345896 (inst/sec) elapsed = 0:0:01:41 / Tue Apr 16 16:58:11 2019
GPGPU-Sim PTX: 39300000 instructions simulated : ctaid=(1,16,0) tid=(21,0,0)
GPGPU-Sim PTX: 39400000 instructions simulated : ctaid=(1,4,0) tid=(4,1,0)
GPGPU-Sim PTX: 39500000 instructions simulated : ctaid=(2,17,0) tid=(27,1,0)
GPGPU-Sim uArch: cycles simulated: 71500  inst.: 35203822 (ipc=492.4) sim_rate=345135 (inst/sec) elapsed = 0:0:01:42 / Tue Apr 16 16:58:12 2019
GPGPU-Sim PTX: 39600000 instructions simulated : ctaid=(2,8,0) tid=(9,1,0)
GPGPU-Sim PTX: 39700000 instructions simulated : ctaid=(3,13,0) tid=(14,1,0)
GPGPU-Sim PTX: 39800000 instructions simulated : ctaid=(2,17,0) tid=(5,2,0)
GPGPU-Sim PTX: 39900000 instructions simulated : ctaid=(0,8,0) tid=(29,1,0)
GPGPU-Sim PTX: 40000000 instructions simulated : ctaid=(1,8,0) tid=(12,0,0)
GPGPU-Sim PTX: 40100000 instructions simulated : ctaid=(1,13,0) tid=(17,0,0)
GPGPU-Sim uArch: cycles simulated: 72500  inst.: 35736898 (ipc=492.9) sim_rate=346960 (inst/sec) elapsed = 0:0:01:43 / Tue Apr 16 16:58:13 2019
GPGPU-Sim PTX: 40200000 instructions simulated : ctaid=(2,6,0) tid=(21,2,0)
GPGPU-Sim PTX: 40300000 instructions simulated : ctaid=(2,11,0) tid=(0,2,0)
GPGPU-Sim PTX: 40400000 instructions simulated : ctaid=(3,16,0) tid=(20,0,0)
GPGPU-Sim uArch: cycles simulated: 73000  inst.: 36005765 (ipc=493.2) sim_rate=346209 (inst/sec) elapsed = 0:0:01:44 / Tue Apr 16 16:58:14 2019
GPGPU-Sim PTX: 40500000 instructions simulated : ctaid=(0,17,0) tid=(20,2,0)
GPGPU-Sim PTX: 40600000 instructions simulated : ctaid=(1,17,0) tid=(19,1,0)
GPGPU-Sim PTX: 40700000 instructions simulated : ctaid=(2,10,0) tid=(6,0,0)
GPGPU-Sim uArch: cycles simulated: 73500  inst.: 36267618 (ipc=493.4) sim_rate=345405 (inst/sec) elapsed = 0:0:01:45 / Tue Apr 16 16:58:15 2019
GPGPU-Sim PTX: 40800000 instructions simulated : ctaid=(0,2,0) tid=(8,2,0)
GPGPU-Sim PTX: 40900000 instructions simulated : ctaid=(3,9,0) tid=(10,0,0)
GPGPU-Sim PTX: 41000000 instructions simulated : ctaid=(2,15,0) tid=(23,1,0)
GPGPU-Sim PTX: 41100000 instructions simulated : ctaid=(1,11,0) tid=(25,2,0)
GPGPU-Sim PTX: 41200000 instructions simulated : ctaid=(1,12,0) tid=(1,1,0)
GPGPU-Sim uArch: cycles simulated: 74500  inst.: 36772755 (ipc=493.6) sim_rate=346912 (inst/sec) elapsed = 0:0:01:46 / Tue Apr 16 16:58:16 2019
GPGPU-Sim PTX: 41300000 instructions simulated : ctaid=(1,12,0) tid=(22,0,0)
GPGPU-Sim PTX: 41400000 instructions simulated : ctaid=(0,13,0) tid=(26,2,0)
GPGPU-Sim PTX: 41500000 instructions simulated : ctaid=(1,14,0) tid=(3,0,0)
GPGPU-Sim PTX: 41600000 instructions simulated : ctaid=(0,15,0) tid=(0,3,0)
GPGPU-Sim uArch: cycles simulated: 75000  inst.: 37051245 (ipc=494.0) sim_rate=346273 (inst/sec) elapsed = 0:0:01:47 / Tue Apr 16 16:58:17 2019
GPGPU-Sim PTX: 41700000 instructions simulated : ctaid=(1,18,0) tid=(30,0,0)
GPGPU-Sim PTX: 41800000 instructions simulated : ctaid=(2,24,0) tid=(19,2,0)
GPGPU-Sim uArch: cycles simulated: 75500  inst.: 37299855 (ipc=494.0) sim_rate=345369 (inst/sec) elapsed = 0:0:01:48 / Tue Apr 16 16:58:18 2019
GPGPU-Sim PTX: 41900000 instructions simulated : ctaid=(2,1,0) tid=(20,2,0)
GPGPU-Sim PTX: 42000000 instructions simulated : ctaid=(2,9,0) tid=(2,2,0)
GPGPU-Sim PTX: 42100000 instructions simulated : ctaid=(0,16,0) tid=(11,2,0)
GPGPU-Sim PTX: 42200000 instructions simulated : ctaid=(0,20,0) tid=(25,1,0)
GPGPU-Sim PTX: 42300000 instructions simulated : ctaid=(1,3,0) tid=(5,2,0)
GPGPU-Sim PTX: 42400000 instructions simulated : ctaid=(0,2,0) tid=(27,2,0)
GPGPU-Sim uArch: cycles simulated: 76500  inst.: 37826539 (ipc=494.5) sim_rate=347032 (inst/sec) elapsed = 0:0:01:49 / Tue Apr 16 16:58:19 2019
GPGPU-Sim PTX: 42500000 instructions simulated : ctaid=(1,9,0) tid=(30,2,0)
GPGPU-Sim PTX: 42600000 instructions simulated : ctaid=(0,8,0) tid=(7,2,0)
GPGPU-Sim PTX: 42700000 instructions simulated : ctaid=(0,23,0) tid=(21,1,0)
GPGPU-Sim uArch: cycles simulated: 77000  inst.: 38059807 (ipc=494.3) sim_rate=345998 (inst/sec) elapsed = 0:0:01:50 / Tue Apr 16 16:58:20 2019
GPGPU-Sim PTX: 42800000 instructions simulated : ctaid=(2,4,0) tid=(24,3,0)
GPGPU-Sim PTX: 42900000 instructions simulated : ctaid=(0,1,0) tid=(16,2,0)
GPGPU-Sim PTX: 43000000 instructions simulated : ctaid=(0,14,0) tid=(23,2,0)
GPGPU-Sim PTX: 43100000 instructions simulated : ctaid=(2,14,0) tid=(9,0,0)
GPGPU-Sim PTX: 43200000 instructions simulated : ctaid=(0,21,0) tid=(4,2,0)
GPGPU-Sim PTX: 43300000 instructions simulated : ctaid=(2,22,0) tid=(17,0,0)
GPGPU-Sim uArch: cycles simulated: 78000  inst.: 38610306 (ipc=495.0) sim_rate=347840 (inst/sec) elapsed = 0:0:01:51 / Tue Apr 16 16:58:21 2019
GPGPU-Sim PTX: 43400000 instructions simulated : ctaid=(2,11,0) tid=(14,1,0)
GPGPU-Sim PTX: 43500000 instructions simulated : ctaid=(0,12,0) tid=(21,0,0)
GPGPU-Sim uArch: cycles simulated: 78500  inst.: 38823259 (ipc=494.6) sim_rate=346636 (inst/sec) elapsed = 0:0:01:52 / Tue Apr 16 16:58:22 2019
GPGPU-Sim PTX: 43600000 instructions simulated : ctaid=(0,14,0) tid=(5,3,0)
GPGPU-Sim PTX: 43700000 instructions simulated : ctaid=(1,0,0) tid=(6,3,0)
GPGPU-Sim PTX: 43800000 instructions simulated : ctaid=(0,1,0) tid=(24,1,0)
GPGPU-Sim uArch: cycles simulated: 79000  inst.: 39082827 (ipc=494.7) sim_rate=345865 (inst/sec) elapsed = 0:0:01:53 / Tue Apr 16 16:58:23 2019
GPGPU-Sim PTX: 43900000 instructions simulated : ctaid=(2,16,0) tid=(0,2,0)
GPGPU-Sim PTX: 44000000 instructions simulated : ctaid=(2,9,0) tid=(9,1,0)
GPGPU-Sim PTX: 44100000 instructions simulated : ctaid=(1,15,0) tid=(7,0,0)
[...]
traffic_breakdown_memtocore[GLOBAL_ACC_W] = 530000 {8:66250,}
traffic_breakdown_memtocore[INST_ACC_R] = 28560 {136:210,}
maxmrqlatency = 606 
maxdqlatency = 0 
maxmflatency = 1265 
averagemflatency = 266 
max_icnt2mem_latency = 519 
max_icnt2sh_latency = 162786 
mrq_lat_table:48963 	3575 	3858 	9340 	23731 	22217 	11717 	2510 	241 	18 	0 	0 	0 	0 	0 	0 	0 	0 	0 	0 	0 	0 	0 	0 	0 	0 	0 	0 	0 	0 	0 	0 	
dq_lat_table:0 	0 	0 	0 	0 	0 	0 	0 	0 	0 	0 	0 	0 	0 	0 	0 	0 	0 	0 	0 	0 	0 	0 	0 	0 	0 	0 	0 	0 	0 	0 	0 	
mf_lat_table:0 	0 	0 	0 	0 	0 	0 	74842 	99755 	2561 	101 	0 	0 	0 	0 	0 	0 	0 	0 	0 	0 	0 	0 	0 	0 	0 	0 	0 	0 	0 	0 	0 	
icnt2mem_lat_table:0 	0 	0 	112006 	50274 	11521 	2479 	886 	302 	1 	0 	0 	0 	0 	0 	0 	0 	0 	0 	0 	0 	0 	0 	0 	
icnt2sh_lat_table:0 	0 	0 	20488 	64622 	25259 	640 	0 	0 	0 	0 	0 	1291 	3519 	7642 	15855 	31495 	6448 	0 	0 	0 	0 	0 	0 	
mf_lat_pw_table:0 	0 	0 	0 	0 	0 	0 	156 	165 	2 	0 	0 	0 	0 	0 	0 	0 	0 	0 	0 	0 	0 	0 	0 	0 	0 	0 	0 	0 	0 	0 	0 	
maximum concurrent accesses to same row:
dram[0]:        27        20        29        27        42        24        42        32        61        70        26        43        29        34        23        27 
dram[1]:        19        24        20        24        22        28        33        32        53        73        35        36        25        22        25        25 
dram[2]:        18        21        17        38        20        26        32        32        60        69        32        38        17        25        19        22 
dram[3]:        21        20        25        50        30        47        32        32        66        75        36        37        21        40        34        52 
dram[4]:        19        21        20        33        25        55        32        32        68        64        41        24        21        36        33        34 
dram[5]:        24        19        22        38        20        22        32        32        70        65        28        47        17        27        25        21 
maximum service time to same row:
dram[0]:     11666     11064     14009     14116     14105     14325     15868     15894     12188     11703     11295     10908     11150     10495     10650     10880 
dram[1]:     11506     12285     14024     14141     14122     14351     15877     15917     11881     12169     11130     11172     11190     10904     11071     11037 
dram[2]:     11616     12660     14010     14137     14121     14385     15203     16060     12224     12016     11358     11260     10909     10959     11039     11178 
dram[3]:     10956     12531     14027     14152     14132     14374     15882     15978     12003     13168     10989     11022     10935     10819     11267     11164 
dram[4]:     10753     12521     14046     14166     14136     14281     15909     15960     12689     12406     10996     11465     10659     10776     11012     11179 
dram[5]:     11041     12604     14013     14163     13728     13488     15909     16207     11881     12316     10882     11411     10790     10932     10906     11150 
average row accesses per activate:
dram[0]:  2.977169  2.972222  3.016317  3.018824  3.032710  3.016129  2.951220  2.929360  3.100671  3.171625  3.018018  3.050459  3.097387  2.972158  3.061466  2.979358 
dram[1]:  2.825431  2.918182  2.963218  2.965517  3.025581  2.861233  2.984270  2.898455  3.139588  3.197248  3.117096  3.171838  3.040189  3.202970  2.856195  3.146635 
dram[2]:  2.878587  3.071429  2.817181  2.885210  3.032941  3.114558  3.011364  3.045977  3.064877  3.159910  3.140515  3.020501  2.918182  3.027972  2.887892  3.088095 
dram[3]:  2.901566  3.030588  2.895928  2.952381  2.956621  3.080189  2.979775  2.973154  3.042316  3.168919  3.029479  2.925110  2.953811  3.030233  3.028436  3.092637 
dram[4]:  2.886161  3.171990  2.895928  3.092637  2.884701  2.986270  2.926667  3.168269  3.176334  3.287736  3.029345  3.083721  2.900452  3.144231  2.938356  2.986175 
dram[5]:  2.860000  3.090692  2.889640  2.932735  2.821739  2.984055  2.747899  2.993258  2.942308  3.004320  3.013544  2.962306  2.917808  3.053991  3.222772  3.061611 
average row locality = 126170/41953 = 3.007413
number of total memory accesses made:
dram[0]:         0         0         0         0         0         0         0         0         0         0         0         0         0         0         0         0 
dram[1]:         0         0         0         0         0         0         0         0         0         0         0         0         0         0         0         0 
dram[2]:         0         0         0         0         0         0         0         0         0         0         0         0         0         0         0         0 
dram[3]:         0         0         0         0         0         0         0         0         0         0         0         0         0         0         0         0 
dram[4]:         0         0         0         0         0         0         0         0         0         0         0         0         0         0         0         0 
dram[5]:         0         0         0         0         0         0         0         0         0         0         0         0         0         0         0         0 
total accesses: 0
min_bank_accesses = 0!
min_chip_accesses = 0!
number of total read accesses:
dram[0]:       649       644       647       644       653       655       674       679       676       678       661       660       648       643       647       642 
dram[1]:       647       645       647       645       654       653       674       674       676       677       656       662       644       648       643       647 
dram[2]:       643       649       641       647       650       657       674       679       674       678       657       662       645       645       644       646 
dram[3]:       642       647       642       646       651       657       673       679       673       679       654       664       641       647       642       646 
dram[4]:       643       651       640       650       652       656       674       676       676       678       660       660       642       646       642       648 
dram[5]:       646       647       645       647       653       657       673       677       674       679       657       662       642       644       643       646 
total reads: 62952
bank skew: 679/640 = 1.06
chip skew: 10500/10483 = 1.00
number of total write accesses:
dram[0]:       655       640       647       639       645       654       657       648       710       708       679       670       656       638       648       657 
dram[1]:       664       639       642       645       647       646       654       639       696       717       675       667       642       646       648       662 
dram[2]:       661       641       638       660       639       648       651       646       696       725       684       664       639       654       644       651 
dram[3]:       655       641       638       656       644       649       653       650       693       728       682       664       638       656       636       656 
dram[4]:       650       640       640       652       649       649       643       642       693       716       682       666       640       662       645       648 
dram[5]:       641       648       638       661       645       653       635       655       703       712       678       674       636       657       659       646 
total reads: 63218
bank skew: 728/635 = 1.15
chip skew: 10551/10517 = 1.00
average mf latency per bank:
dram[0]:        377       370       367       362       380       360       389       380       384       392       365       375       379       383       376       370
dram[1]:        366       362       358       359       360       365       377       380       383       398       369       380       368       372       371       373
dram[2]:        361       367       363       364       366       376       376       377       384       384       362       368       357       367       357       372
dram[3]:        368       375       359       373       368       378       376       386       384       397       360       380       362       391       366       378
dram[4]:        359       372       363       373       366       394       378       388       384       387       360       389       368       391       368       380
dram[5]:        358       374       365       371       371       372       382       378       387       387       365       384       368       376       361       382
maximum mf latency per bank:
dram[0]:        749       596       589       589       884       476       784       656      1022      1144       775      1038       759       745       613       574
dram[1]:        530       567       586       565       514       654       574       575      1036      1150       747       815       729       697       587       656
dram[2]:        608       544       527       619       512       648       606       718      1122      1030       623       694       549       647       505       562
dram[3]:        682       549       506       834       564       796       601       620       995      1265       889       846       620       765       579       822
dram[4]:        601       703       599       590       517       940       573       587      1118      1150       825       773       668       853       708       678
dram[5]:        535       583       635       665       549       637       636       602      1136      1188       759       829       680       627       617       661

Number of Memory Banks Accessed per Memory Operation per Warp (from 0):
0	0	0	0	0	0	0	0	0	0	0	0	0	0	0	0	0	0	0	0	0	0	0	0	0	0	0	0	0	0	0	0	0	0	0	0	0	0	0	0	0	0	0	0	0	0	0	0	0	0	0	0	0	0	0	0	0	0	0	0	0	0	0	0	0	0	0	0	0	0	0	0	0	0	0	0	0	0	0	0	0	0	0	0	0	0	0	0	0	0	0	0	0	0	0	0	
Average # of Memory Banks Accessed per Memory Operation per Warp=-nan

position of mrq chosen
0	0	0	0	0	0	0	0	0	0	0	0	0	0	0	0	

average position of mrq chosen = -nan
Memory Partition 0: 
Cache L2_bank_000:
MSHR contents

Cache L2_bank_001:
MSHR contents

In Dram Latency Queue (total = 0): 
DRAM[0]: 16 bks, busW=4 BL=8 CL=12, tRRD=2 tCCD=6, tRCD=12 tRAS=28 tRP=12 tRC=40
n_cmd=214878 n_nop=164007 n_act=6965 n_pre=6949 n_req=21051 n_rd=21000 n_write=15957 bw_util=0.344
n_activity=187651 dram_eff=0.3939
bk0: 1298a 182182i bk1: 1288a 183558i bk2: 1294a 183432i bk3: 1288a 183256i bk4: 1306a 183728i bk5: 1310a 183171i bk6: 1348a 181950i bk7: 1358a 181599i bk8: 1352a 181530i bk9: 1356a 181237i bk10: 1322a 181893i bk11: 1320a 181578i bk12: 1296a 182704i bk13: 1286a 182457i bk14: 1294a 183110i bk15: 1284a 182060i 
dram_util_bins: 0 0 0 0 0 0 0 0 0 0
dram_eff_bins: 0 0 0 0 0 0 0 0 0 0
mrqq: max=16 avg=3.21593
Memory Partition 1: 
Cache L2_bank_002:
MSHR contents

Cache L2_bank_003:
MSHR contents

In Dram Latency Queue (total = 0): 
DRAM[1]: 16 bks, busW=4 BL=8 CL=12, tRRD=2 tCCD=6, tRCD=12 tRAS=28 tRP=12 tRC=40
n_cmd=214878 n_nop=164076 n_act=6970 n_pre=6954 n_req=21021 n_rd=20984 n_write=15894 bw_util=0.3432
n_activity=187946 dram_eff=0.3924
bk0: 1294a 181892i bk1: 1290a 184038i bk2: 1294a 183327i bk3: 1290a 182449i bk4: 1308a 183228i bk5: 1306a 182448i bk6: 1348a 182238i bk7: 1348a 181410i bk8: 1352a 181996i bk9: 1354a 181176i bk10: 1312a 182504i bk11: 1324a 182527i bk12: 1288a 183403i bk13: 1296a 182820i bk14: 1286a 182024i bk15: 1294a 182423i 
dram_util_bins: 0 0 0 0 0 0 0 0 0 0
dram_eff_bins: 0 0 0 0 0 0 0 0 0 0
mrqq: max=16 avg=3.21976
Memory Partition 2: 
Cache L2_bank_004:
MSHR contents

Cache L2_bank_005:
MSHR contents

In Dram Latency Queue (total = 0): 
DRAM[2]: 16 bks, busW=4 BL=8 CL=12, tRRD=2 tCCD=6, tRCD=12 tRAS=28 tRP=12 tRC=40
n_cmd=214878 n_nop=164006 n_act=6991 n_pre=6975 n_req=21032 n_rd=20982 n_write=15924 bw_util=0.3435
n_activity=187107 dram_eff=0.3945
bk0: 1286a 182971i bk1: 1298a 183350i bk2: 1282a 181848i bk3: 1294a 182229i bk4: 1300a 182920i bk5: 1314a 183313i bk6: 1348a 182047i bk7: 1358a 182246i bk8: 1348a 183057i bk9: 1356a 181696i bk10: 1314a 182668i bk11: 1324a 182033i bk12: 1290a 182758i bk13: 1290a 182816i bk14: 1288a 182436i bk15: 1292a 182562i 
dram_util_bins: 0 0 0 0 0 0 0 0 0 0
dram_eff_bins: 0 0 0 0 0 0 0 0 0 0
mrqq: max=16 avg=3.04996
Memory Partition 3: 
Cache L2_bank_006:
MSHR contents

Cache L2_bank_007:
MSHR contents

In Dram Latency Queue (total = 0): 
DRAM[3]: 16 bks, busW=4 BL=8 CL=12, tRRD=2 tCCD=6, tRCD=12 tRAS=28 tRP=12 tRC=40
n_cmd=214878 n_nop=164016 n_act=7003 n_pre=6987 n_req=21022 n_rd=20966 n_write=15906 bw_util=0.3432
n_activity=186848 dram_eff=0.3947
bk0: 1284a 182290i bk1: 1294a 183245i bk2: 1284a 183715i bk3: 1292a 183089i bk4: 1302a 182727i bk5: 1314a 182520i bk6: 1346a 182113i bk7: 1358a 180768i bk8: 1346a 182651i bk9: 1358a 180949i bk10: 1308a 182266i bk11: 1328a 181763i bk12: 1282a 182802i bk13: 1294a 181738i bk14: 1284a 182832i bk15: 1292a 182335i 
dram_util_bins: 0 0 0 0 0 0 0 0 0 0
dram_eff_bins: 0 0 0 0 0 0 0 0 0 0
mrqq: max=16 avg=3.31241
Memory Partition 4: 
Cache L2_bank_008:
MSHR contents

Cache L2_bank_009:
MSHR contents

In Dram Latency Queue (total = 0): 
DRAM[4]: 16 bks, busW=4 BL=8 CL=12, tRRD=2 tCCD=6, tRCD=12 tRAS=28 tRP=12 tRC=40
n_cmd=214878 n_nop=164177 n_act=6930 n_pre=6914 n_req=21011 n_rd=20988 n_write=15869 bw_util=0.3431
n_activity=187926 dram_eff=0.3923
bk0: 1286a 183261i bk1: 1302a 184640i bk2: 1280a 182807i bk3: 1300a 182565i bk4: 1304a 182508i bk5: 1312a 182310i bk6: 1348a 182960i bk7: 1352a 182607i bk8: 1352a 182551i bk9: 1356a 182241i bk10: 1320a 182254i bk11: 1320a 181652i bk12: 1284a 183723i bk13: 1292a 183193i bk14: 1284a 182696i bk15: 1296a 183041i 
dram_util_bins: 0 0 0 0 0 0 0 0 0 0
dram_eff_bins: 0 0 0 0 0 0 0 0 0 0
mrqq: max=16 avg=3.2502
Memory Partition 5: 
Cache L2_bank_010:
MSHR contents

Cache L2_bank_011:
MSHR contents

In Dram Latency Queue (total = 0): 
DRAM[5]: 16 bks, busW=4 BL=8 CL=12, tRRD=2 tCCD=6, tRCD=12 tRAS=28 tRP=12 tRC=40
n_cmd=214878 n_nop=163769 n_act=7094 n_pre=7078 n_req=21033 n_rd=20984 n_write=15953 bw_util=0.3438
n_activity=188294 dram_eff=0.3923
bk0: 1292a 182636i bk1: 1294a 183533i bk2: 1290a 183053i bk3: 1294a 182037i bk4: 1306a 182280i bk5: 1314a 181535i bk6: 1346a 181722i bk7: 1354a 181556i bk8: 1348a 181479i bk9: 1358a 180866i bk10: 1314a 182095i bk11: 1324a 181244i bk12: 1284a 182907i bk13: 1288a 182589i bk14: 1286a 183324i bk15: 1292a 182333i 
dram_util_bins: 0 0 0 0 0 0 0 0 0 0
dram_eff_bins: 0 0 0 0 0 0 0 0 0 0
mrqq: max=16 avg=3.20598

========= L2 cache stats =========
L2_cache_bank[0]: Access = 14813, Miss = 5255, Miss_rate = 0.355, Pending_hits = 3861, Reservation_fails = 938
L2_cache_bank[1]: Access = 14802, Miss = 5245, Miss_rate = 0.354, Pending_hits = 3772, Reservation_fails = 637
L2_cache_bank[2]: Access = 14807, Miss = 5241, Miss_rate = 0.354, Pending_hits = 3819, Reservation_fails = 941
L2_cache_bank[3]: Access = 14760, Miss = 5251, Miss_rate = 0.356, Pending_hits = 3819, Reservation_fails = 553
L2_cache_bank[4]: Access = 14813, Miss = 5228, Miss_rate = 0.353, Pending_hits = 3769, Reservation_fails = 662
L2_cache_bank[5]: Access = 14763, Miss = 5263, Miss_rate = 0.356, Pending_hits = 3924, Reservation_fails = 469
L2_cache_bank[6]: Access = 14806, Miss = 5218, Miss_rate = 0.352, Pending_hits = 3761, Reservation_fails = 771
L2_cache_bank[7]: Access = 14762, Miss = 5265, Miss_rate = 0.357, Pending_hits = 3968, Reservation_fails = 475
L2_cache_bank[8]: Access = 14804, Miss = 5229, Miss_rate = 0.353, Pending_hits = 3722, Reservation_fails = 574
L2_cache_bank[9]: Access = 14765, Miss = 5265, Miss_rate = 0.357, Pending_hits = 3995, Reservation_fails = 936
L2_cache_bank[10]: Access = 14802, Miss = 5233, Miss_rate = 0.354, Pending_hits = 3755, Reservation_fails = 655
L2_cache_bank[11]: Access = 14772, Miss = 5259, Miss_rate = 0.356, Pending_hits = 3992, Reservation_fails = 394
L2_total_cache_accesses = 177469
L2_total_cache_misses = 62952
L2_total_cache_miss_rate = 0.3547
L2_total_cache_pending_hits = 46157
L2_total_cache_reservation_fails = 8005
L2_total_cache_breakdown:
	L2_cache_stats_breakdown[GLOBAL_ACC_R][HIT] = 53952
	L2_cache_stats_breakdown[GLOBAL_ACC_R][HIT_RESERVED] = 25502
	L2_cache_stats_breakdown[GLOBAL_ACC_R][MISS] = 31540
	L2_cache_stats_breakdown[GLOBAL_ACC_R][RESERVATION_FAIL] = 6328
	L2_cache_stats_breakdown[CONST_ACC_R][HIT] = 11
	L2_cache_stats_breakdown[CONST_ACC_R][HIT_RESERVED] = 3
	L2_cache_stats_breakdown[CONST_ACC_R][MISS] = 1
	L2_cache_stats_breakdown[CONST_ACC_R][RESERVATION_FAIL] = 108
	L2_cache_stats_breakdown[GLOBAL_ACC_W][HIT] = 14243
	L2_cache_stats_breakdown[GLOBAL_ACC_W][HIT_RESERVED] = 20610
	L2_cache_stats_breakdown[GLOBAL_ACC_W][MISS] = 31397
	L2_cache_stats_breakdown[GLOBAL_ACC_W][RESERVATION_FAIL] = 251
	L2_cache_stats_breakdown[INST_ACC_R][HIT] = 154
	L2_cache_stats_breakdown[INST_ACC_R][HIT_RESERVED] = 42
	L2_cache_stats_breakdown[INST_ACC_R][MISS] = 14
	L2_cache_stats_breakdown[INST_ACC_R][RESERVATION_FAIL] = 1318
L2_cache_data_port_util = 0.140
L2_cache_fill_port_util = 0.129

icnt_total_pkts_mem_to_simt=622315
icnt_total_pkts_simt_to_mem=337469
LD_mem_lat_dist  0 0 0 0 0 0 0 0 0 0 0 0 0 0 0 0 0 0 0 0 0 0 0 0 0 0 0
ST_mem_lat_dist  0 0 0 0 0 0 0 0 0 0 0 0 0 0 0 0 0 0 0 0 0 0 0 0 0 0 0
----------------------------Interconnect-DETAILS--------------------------------
Class 0:
Packet latency average = 17.5182
	minimum = 6
	maximum = 434
Network latency average = 14.0029
	minimum = 6
	maximum = 407
Slowest packet = 5933
Flit latency average = 12.3482
	minimum = 6
	maximum = 407
Slowest flit = 17181
Fragmentation average = 0.00980735
	minimum = 0
	maximum = 288
Injected packet rate average = 0.0807549
	minimum = 0.0627507 (at node 13)
	maximum = 0.0909962 (at node 15)
Accepted packet rate average = 0.0807549
	minimum = 0.0627507 (at node 13)
	maximum = 0.0909962 (at node 15)
Injected flit rate average = 0.218369
	minimum = 0.116809 (at node 13)
	maximum = 0.319319 (at node 19)
Accepted flit rate average= 0.218369
	minimum = 0.172575 (at node 18)
	maximum = 0.279463 (at node 3)
Injected packet length average = 2.70409
Accepted packet length average = 2.70409
Total in-flight flits = 0 (0 measured)
====== Overall Traffic Statistics ======
====== Traffic class 0 ======
Packet latency average = 17.5182 (1 samples)
	minimum = 6 (1 samples)
	maximum = 434 (1 samples)
Network latency average = 14.0029 (1 samples)
	minimum = 6 (1 samples)
	maximum = 407 (1 samples)
Flit latency average = 12.3482 (1 samples)
	minimum = 6 (1 samples)
	maximum = 407 (1 samples)
Fragmentation average = 0.00980735 (1 samples)
	minimum = 0 (1 samples)
	maximum = 288 (1 samples)
Injected packet rate average = 0.0807549 (1 samples)
	minimum = 0.0627507 (1 samples)
	maximum = 0.0909962 (1 samples)
Accepted packet rate average = 0.0807549 (1 samples)
	minimum = 0.0627507 (1 samples)
	maximum = 0.0909962 (1 samples)
Injected flit rate average = 0.218369 (1 samples)
	minimum = 0.116809 (1 samples)
	maximum = 0.319319 (1 samples)
Accepted flit rate average = 0.218369 (1 samples)
	minimum = 0.172575 (1 samples)
	maximum = 0.279463 (1 samples)
Injected packet size average = 2.70409 (1 samples)
Accepted packet size average = 2.70409 (1 samples)
Hops average = 1 (1 samples)
----------------------------END-of-Interconnect-DETAILS-------------------------


gpgpu_simulation_time = 0 days, 0 hrs, 3 min, 28 sec (208 sec)
gpgpu_simulation_rate = 349575 (inst/sec)
gpgpu_simulation_rate = 782 (cycle/sec)
GPGPU-Sim: synchronize waiting for inactive GPU simulation
GPGPU-Sim API: Stream Manager State
GPGPU-Sim: detected inactive GPU simulation thread

1x GPU_laplace3d: 207876.281250 (ms) 

Copy u2 to host: 100.439003 (ms) 

1x Gold_laplace3d: 17.336000 (ms) 
 

 rms error = 0.000000 
CUDA_SAFE_CALL( cudaFree(d_u1) );
CUDA_SAFE_CALL( cudaFree(d_u2) );
free(h_u1);
free(h_u2);
free(h_u3);

Press ENTER to exit...
