

        *** GPGPU-Sim Simulator Version 3.2.2  [build 0] ***


GPGPU-Sim PTX: simulation mode 0 (can change with PTX_SIM_MODE_FUNC environment variable:
               1=functional simulation only, 0=detailed performance simulator)
GPGPU-Sim: Configuration options:

-network_mode                           1 # Interconnection network mode
-inter_config_file   config_fermi_islip.icnt # Interconnection network config file
-gpgpu_ptx_use_cuobjdump                    1 # Use cuobjdump to extract ptx and sass from binaries
-gpgpu_experimental_lib_support                    0 # Try to extract code from cuda libraries [Broken because of unknown cudaGetExportTable]
-gpgpu_ptx_convert_to_ptxplus                    0 # Convert SASS (native ISA) to ptxplus and run ptxplus
-gpgpu_ptx_force_max_capability                   20 # Force maximum compute capability
-gpgpu_ptx_inst_debug_to_file                    0 # Dump executed instructions' debug information to file
-gpgpu_ptx_inst_debug_file       inst_debug.txt # Executed instructions' debug output file
-gpgpu_ptx_inst_debug_thread_uid                    1 # Thread UID for executed instructions' debug output
-gpgpu_simd_model                       1 # 1 = post-dominator
-gpgpu_shader_core_pipeline              1536:32 # shader core pipeline config, i.e., {<nthread>:<warpsize>}
-gpgpu_tex_cache:l1  4:128:24,L:R:m:N:L,F:128:4,128:2 # per-shader L1 texture cache  (READ-ONLY) config  {<nsets>:<bsize>:<assoc>,<rep>:<wr>:<alloc>:<wr_alloc>,<mshr>:<N>:<merge>,<mq>:<rf>}
-gpgpu_const_cache:l1 64:64:2,L:R:f:N:L,A:2:32,4 # per-shader L1 constant memory cache  (READ-ONLY) config  {<nsets>:<bsize>:<assoc>,<rep>:<wr>:<alloc>:<wr_alloc>,<mshr>:<N>:<merge>,<mq>} 
-gpgpu_cache:il1     4:128:4,L:R:f:N:L,A:2:32,4 # shader L1 instruction cache config  {<nsets>:<bsize>:<assoc>,<rep>:<wr>:<alloc>:<wr_alloc>,<mshr>:<N>:<merge>,<mq>} 
-gpgpu_cache:dl1     32:128:1,L:L:m:N:H,A:32:8,8 # per-shader L1 data cache config  {<nsets>:<bsize>:<assoc>,<rep>:<wr>:<alloc>:<wr_alloc>,<mshr>:<N>:<merge>,<mq> | none}
-gpgpu_cache:dl1PrefL1                 none # per-shader L1 data cache config  {<nsets>:<bsize>:<assoc>,<rep>:<wr>:<alloc>:<wr_alloc>,<mshr>:<N>:<merge>,<mq> | none}
-gpgpu_cache:dl1PreShared                 none # per-shader L1 data cache config  {<nsets>:<bsize>:<assoc>,<rep>:<wr>:<alloc>:<wr_alloc>,<mshr>:<N>:<merge>,<mq> | none}
-gmem_skip_L1D                          0 # global memory access skip L1D cache (implements -Xptxas -dlcm=cg, default=no skip)
-gpgpu_perfect_mem                      0 # enable perfect memory mode (no cache miss)
-n_regfile_gating_group                    4 # group of lanes that should be read/written together)
-gpgpu_clock_gated_reg_file                    0 # enable clock gated reg file for power calculations
-gpgpu_clock_gated_lanes                    0 # enable clock gated lanes for power calculations
-gpgpu_shader_registers                32768 # Number of registers per shader core. Limits number of concurrent CTAs. (default 8192)
-gpgpu_shader_cta                       8 # Maximum number of concurrent CTAs in shader (default 8)
-gpgpu_num_cta_barriers                   16 # Maximum number of named barriers per CTA (default 16)
-gpgpu_n_clusters                      15 # number of processing clusters
-gpgpu_n_cores_per_cluster                    1 # number of simd cores per cluster
-gpgpu_n_cluster_ejection_buffer_size                    8 # number of packets in ejection buffer
-gpgpu_n_ldst_response_buffer_size                    2 # number of response packets in ld/st unit ejection buffer
-gpgpu_shmem_size                   16384 # Size of shared memory per shader core (default 16kB)
-gpgpu_shmem_size                   49152 # Size of shared memory per shader core (default 16kB)
-gpgpu_shmem_size_PrefL1                16384 # Size of shared memory per shader core (default 16kB)
-gpgpu_shmem_size_PrefShared                16384 # Size of shared memory per shader core (default 16kB)
-gpgpu_shmem_num_banks                   32 # Number of banks in the shared memory in each shader core (default 16)
-gpgpu_shmem_limited_broadcast                    0 # Limit shared memory to do one broadcast per cycle (default on)
-gpgpu_shmem_warp_parts                    1 # Number of portions a warp is divided into for shared memory bank conflict check 
-gpgpu_warpdistro_shader                   -1 # Specify which shader core to collect the warp size distribution from
-gpgpu_warp_issue_shader                    0 # Specify which shader core to collect the warp issue distribution from
-gpgpu_local_mem_map                    1 # Mapping from local memory space address to simulated GPU physical address space (default = enabled)
-gpgpu_num_reg_banks                   16 # Number of register banks (default = 8)
-gpgpu_reg_bank_use_warp_id                    0 # Use warp ID in mapping registers to banks (default = off)
-gpgpu_operand_collector_num_units_sp                    6 # number of collector units (default = 4)
-gpgpu_operand_collector_num_units_sfu                    8 # number of collector units (default = 4)
-gpgpu_operand_collector_num_units_mem                    2 # number of collector units (default = 2)
-gpgpu_operand_collector_num_units_gen                    0 # number of collector units (default = 0)
-gpgpu_operand_collector_num_in_ports_sp                    2 # number of collector unit in ports (default = 1)
-gpgpu_operand_collector_num_in_ports_sfu                    1 # number of collector unit in ports (default = 1)
-gpgpu_operand_collector_num_in_ports_mem                    1 # number of collector unit in ports (default = 1)
-gpgpu_operand_collector_num_in_ports_gen                    0 # number of collector unit in ports (default = 0)
-gpgpu_operand_collector_num_out_ports_sp                    2 # number of collector unit in ports (default = 1)
-gpgpu_operand_collector_num_out_ports_sfu                    1 # number of collector unit in ports (default = 1)
-gpgpu_operand_collector_num_out_ports_mem                    1 # number of collector unit in ports (default = 1)
-gpgpu_operand_collector_num_out_ports_gen                    0 # number of collector unit in ports (default = 0)
-gpgpu_coalesce_arch                   13 # Coalescing arch (default = 13, anything else is off for now)
-gpgpu_num_sched_per_core                    2 # Number of warp schedulers per core
-gpgpu_max_insn_issue_per_warp                    1 # Max number of instructions that can be issued per warp in one cycle by scheduler
-gpgpu_simt_core_sim_order                    1 # Select the simulation order of cores in a cluster (0=Fix, 1=Round-Robin)
-gpgpu_pipeline_widths        2,1,1,2,1,1,2 # Pipeline widths ID_OC_SP,ID_OC_SFU,ID_OC_MEM,OC_EX_SP,OC_EX_SFU,OC_EX_MEM,EX_WB
-gpgpu_num_sp_units                     2 # Number of SP units (default=1)
-gpgpu_num_sfu_units                    1 # Number of SF units (default=1)
-gpgpu_num_mem_units                    1 # Number if ldst units (default=1) WARNING: not hooked up to anything
-gpgpu_scheduler                      gto # Scheduler configuration: < lrr | gto | two_level_active > If two_level_active:<num_active_warps>:<inner_prioritization>:<outer_prioritization>For complete list of prioritization values see shader.h enum scheduler_prioritization_typeDefault: gto
-gpgpu_dram_scheduler                    1 # 0 = fifo, 1 = FR-FCFS (defaul)
-gpgpu_dram_partition_queues              8:8:8:8 # i2$:$2d:d2$:$2i
-l2_ideal                               0 # Use a ideal L2 cache that always hit
-gpgpu_cache:dl2     64:128:8,L:B:m:W:L,A:32:4,4:0,32 # unified banked L2 data cache config  {<nsets>:<bsize>:<assoc>,<rep>:<wr>:<alloc>:<wr_alloc>,<mshr>:<N>:<merge>,<mq>}
-gpgpu_cache:dl2_texture_only                    0 # L2 cache used for texture only
-gpgpu_n_mem                            6 # number of memory modules (e.g. memory controllers) in gpu
-gpgpu_n_sub_partition_per_mchannel                    2 # number of memory subpartition in each memory module
-gpgpu_n_mem_per_ctrlr                    2 # number of memory chips per memory controller
-gpgpu_memlatency_stat                   14 # track and display latency statistics 0x2 enables MC, 0x4 enables queue logs
-gpgpu_frfcfs_dram_sched_queue_size                   16 # 0 = unlimited (default); # entries per chip
-gpgpu_dram_return_queue_size                  116 # 0 = unlimited (default); # entries per chip
-gpgpu_dram_buswidth                    4 # default = 4 bytes (8 bytes per cycle at DDR)
-gpgpu_dram_burst_length                    8 # Burst length of each DRAM request (default = 4 data bus cycle)
-dram_data_command_freq_ratio                    4 # Frequency ratio between DRAM data bus and command bus (default = 2 times, i.e. DDR)
-gpgpu_dram_timing_opt nbk=16:CCD=2:RRD=6:RCD=12:RAS=28:RP=12:RC=40: CL=12:WL=4:CDLR=5:WR=12:nbkgrp=4:CCDL=3:RTPL=2 # DRAM timing parameters = {nbk:tCCD:tRRD:tRCD:tRAS:tRP:tRC:CL:WL:tCDLR:tWR:nbkgrp:tCCDL:tRTPL}
-rop_latency                          120 # ROP queue latency (default 85)
-dram_latency                         100 # DRAM latency (default 30)
-gpgpu_mem_addr_mapping dramid@8;00000000.00000000.00000000.00000000.0000RRRR.RRRRRRRR.BBBCCCCB.CCSSSSSS # mapping memory address to dram model {dramid@<start bit>;<memory address map>}
-gpgpu_mem_addr_test                    0 # run sweep test to check address mapping for aliased address
-gpgpu_mem_address_mask                    1 # 0 = old addressing mask, 1 = new addressing mask, 2 = new add. mask + flipped bank sel and chip sel bits
-gpuwattch_xml_file  gpuwattch_gtx480.xml # GPUWattch XML file
-power_simulation_enabled                    1 # Turn on power simulator (1=On, 0=Off)
-power_per_cycle_dump                    0 # Dump detailed power output each cycle
-power_trace_enabled                    0 # produce a file for the power trace (1=On, 0=Off)
-power_trace_zlevel                     6 # Compression level of the power trace output log (0=no comp, 9=highest)
-steady_power_levels_enabled                    0 # produce a file for the steady power levels (1=On, 0=Off)
-steady_state_definition                  8:4 # allowed deviation:number of samples
-gpgpu_max_cycle                        0 # terminates gpu simulation early (0 = no limit)
-gpgpu_max_insn                         0 # terminates gpu simulation early (0 = no limit)
-gpgpu_max_cta                          0 # terminates gpu simulation early (0 = no limit)
-gpgpu_runtime_stat                   500 # display runtime statistics such as dram utilization {<freq>:<flag>}
-liveness_message_freq                    1 # Minimum number of seconds between simulation liveness messages (0 = always print)
-gpgpu_flush_l1_cache                    0 # Flush L1 cache at the end of each kernel call
-gpgpu_flush_l2_cache                    0 # Flush L2 cache at the end of each kernel call
-gpgpu_deadlock_detect                    1 # Stop the simulation at deadlock (1=on (default), 0=off)
-gpgpu_ptx_instruction_classification                    0 # if enabled will classify ptx instruction types per kernel (Max 255 kernels now)
-gpgpu_ptx_sim_mode                     0 # Select between Performance (default) or Functional simulation (1)
-gpgpu_clock_domains 700.0:700.0:700.0:924.0 # Clock Domain Frequencies in MhZ {<Core Clock>:<ICNT Clock>:<L2 Clock>:<DRAM Clock>}
-gpgpu_max_concurrent_kernel                    8 # maximum kernels that can run concurrently on GPU
-gpgpu_cflog_interval                    0 # Interval between each snapshot in control flow logger
-visualizer_enabled                     0 # Turn on visualizer output (1=On, 0=Off)
-visualizer_outputfile                 NULL # Specifies the output log file for visualizer
-visualizer_zlevel                      6 # Compression level of the visualizer output log (0=no comp, 9=highest)
-trace_enabled                          0 # Turn on traces
-trace_components                    none # comma seperated list of traces to enable. Complete list found in trace_streams.tup. Default none
-trace_sampling_core                    0 # The core which is printed using CORE_DPRINTF. Default 0
-trace_sampling_memory_partition                   -1 # The memory partition which is printed using MEMPART_DPRINTF. Default -1 (i.e. all)
-enable_ptx_file_line_stats                    1 # Turn on PTX source line statistic profiling. (1 = On)
-ptx_line_stats_filename gpgpu_inst_stats.txt # Output file for PTX source line statistics.
-save_embedded_ptx                      0 # saves ptx files embedded in binary as <n>.ptx
-keep                                   0 # keep intermediate files created by GPGPU-Sim when interfacing with external programs
-gpgpu_ptx_save_converted_ptxplus                    0 # Saved converted ptxplus to a file
-ptx_opcode_latency_int         4,13,4,5,145 # Opcode latencies for integers <ADD,MAX,MUL,MAD,DIV>Default 1,1,19,25,145
-ptx_opcode_latency_fp          4,13,4,5,39 # Opcode latencies for single precision floating points <ADD,MAX,MUL,MAD,DIV>Default 1,1,1,1,30
-ptx_opcode_latency_dp         8,19,8,8,330 # Opcode latencies for double precision floating points <ADD,MAX,MUL,MAD,DIV>Default 8,8,8,8,335
-ptx_opcode_initiation_int            1,2,2,1,8 # Opcode initiation intervals for integers <ADD,MAX,MUL,MAD,DIV>Default 1,1,4,4,32
-ptx_opcode_initiation_fp            1,2,1,1,4 # Opcode initiation intervals for single precision floating points <ADD,MAX,MUL,MAD,DIV>Default 1,1,1,1,5
-ptx_opcode_initiation_dp         8,16,8,8,130 # Opcode initiation intervals for double precision floating points <ADD,MAX,MUL,MAD,DIV>Default 8,8,8,8,130
DRAM Timing Options:
nbk                                    16 # number of banks
CCD                                     2 # column to column delay
RRD                                     6 # minimal delay between activation of rows in different banks
RCD                                    12 # row to column delay
RAS                                    28 # time needed to activate row
RP                                     12 # time needed to precharge (deactivate) row
RC                                     40 # row cycle time
CDLR                                    5 # switching from write to read (changes tWTR)
WR                                     12 # last data-in to row precharge
CL                                     12 # CAS latency
WL                                      4 # Write latency
nbkgrp                                  4 # number of bank groups
CCDL                                    3 # column to column delay between accesses to different bank groups
RTPL                                    2 # read to precharge delay between accesses to different bank groups
Total number of memory sub partition = 12
addr_dec_mask[CHIP]  = 0000000000000000 	high:64 low:0
addr_dec_mask[BK]    = 000000000000e100 	high:16 low:8
addr_dec_mask[ROW]   = 000000000fff0000 	high:28 low:16
addr_dec_mask[COL]   = 0000000000001eff 	high:13 low:0
addr_dec_mask[BURST] = 000000000000003f 	high:6 low:0
sub_partition_id_mask = 0000000000000100
GPGPU-Sim uArch: clock freqs: 700000000.000000:700000000.000000:700000000.000000:924000000.000000
GPGPU-Sim uArch: clock periods: 0.00000000142857142857:0.00000000142857142857:0.00000000142857142857:0.00000000108225108225
*** Initializing Memory Statistics ***
GPGPU-Sim uArch: interconnect node map (shaderID+MemID to icntID)
GPGPU-Sim uArch: Memory nodes ID start from index: 15
GPGPU-Sim uArch:    0   1   2   3   4
GPGPU-Sim uArch:    5   6   7   8   9
GPGPU-Sim uArch:   10  11  12  13  14
GPGPU-Sim uArch:   15  16  17  18  19
GPGPU-Sim uArch:   20  21  22  23  24
GPGPU-Sim uArch:   25  26
GPGPU-Sim uArch: interconnect node reverse map (icntID to shaderID+MemID)
GPGPU-Sim uArch: Memory nodes start from ID: 15
GPGPU-Sim uArch:    0   1   2   3   4
GPGPU-Sim uArch:    5   6   7   8   9
GPGPU-Sim uArch:   10  11  12  13  14
GPGPU-Sim uArch:   15  16  17  18  19
GPGPU-Sim uArch:   20  21  22  23  24
GPGPU-Sim uArch:   25  26
db8fd71b22e5f9e87a0df9a155b78fdf  /home/scratch/adwait/applications/benchmarks/CUDA/KMN/gpgpu_ptx_sim__KMN
GPGPU-Sim uArch: performance model initialization complete.
GPGPU-Sim PTX: __cudaRegisterFatBinary, fat_cubin_handle = 1, filename=kmeans_cuda.cu
self exe links to: /home/scratch/adwait/applications/benchmarks/CUDA/KMN/gpgpu_ptx_sim__KMN
Running md5sum using "md5sum /home/scratch/adwait/applications/benchmarks/CUDA/KMN/gpgpu_ptx_sim__KMN "
Running cuobjdump using "$CUDA_INSTALL_PATH/bin/cuobjdump -ptx -elf -sass /home/scratch/adwait/applications/benchmarks/CUDA/KMN/gpgpu_ptx_sim__KMN > _cuobjdump_complete_output_HeVXPb"
Parsing file _cuobjdump_complete_output_HeVXPb
######### cuobjdump parser ########
## Adding new section ELF
Adding arch: sm_20
Adding identifier: kmeans_cuda.cu
## Adding new section PTX
Adding ptx filename: _cuobjdump_1.ptx
Adding arch: sm_20
Adding identifier: kmeans_cuda.cu
Done parsing!!!
GPGPU-Sim PTX: __cudaRegisterFunction _Z11kmeansPointPfiiiPiS_S_S0_ : hostFun 0x0x402c28, fat_cubin_handle = 1
GPGPU-Sim PTX: instruction assembly for function '_Z14invert_mappingPfS_ii'...   done.
GPGPU-Sim PTX: finding reconvergence points for '_Z14invert_mappingPfS_ii'...
GPGPU-Sim PTX: Finding dominators for '_Z14invert_mappingPfS_ii'...
GPGPU-Sim PTX: Finding immediate dominators for '_Z14invert_mappingPfS_ii'...
GPGPU-Sim PTX: Finding postdominators for '_Z14invert_mappingPfS_ii'...
GPGPU-Sim PTX: Finding immediate postdominators for '_Z14invert_mappingPfS_ii'...
GPGPU-Sim PTX: pre-decoding instructions for '_Z14invert_mappingPfS_ii'...
GPGPU-Sim PTX: reconvergence points for _Z14invert_mappingPfS_ii...
GPGPU-Sim PTX:  1 (potential) branch divergence @  PC=0x038 (_1.ptx:70) @%p1 bra $Lt_0_2050;
GPGPU-Sim PTX:    immediate post dominator      @  PC=0x110 (_1.ptx:103) exit;
GPGPU-Sim PTX:  2 (potential) branch divergence @  PC=0x058 (_1.ptx:74) @%p2 bra $Lt_0_2562;
GPGPU-Sim PTX:    immediate post dominator      @  PC=0x110 (_1.ptx:103) exit;
GPGPU-Sim PTX:  3 (potential) branch divergence @  PC=0x108 (_1.ptx:99) @%p3 bra $Lt_0_3074;
GPGPU-Sim PTX:    immediate post dominator      @  PC=0x110 (_1.ptx:103) exit;
GPGPU-Sim PTX: ... end of reconvergence points for _Z14invert_mappingPfS_ii
GPGPU-Sim PTX: ... done pre-decoding instructions for '_Z14invert_mappingPfS_ii'.
GPGPU-Sim PTX: instruction assembly for function '_Z11kmeansPointPfiiiPiS_S_S0_'...   done.
GPGPU-Sim PTX: finding reconvergence points for '_Z11kmeansPointPfiiiPiS_S_S0_'...
GPGPU-Sim PTX: Finding dominators for '_Z11kmeansPointPfiiiPiS_S_S0_'...
GPGPU-Sim PTX: Finding immediate dominators for '_Z11kmeansPointPfiiiPiS_S_S0_'...
GPGPU-Sim PTX: Finding postdominators for '_Z11kmeansPointPfiiiPiS_S_S0_'...
GPGPU-Sim PTX: Finding immediate postdominators for '_Z11kmeansPointPfiiiPiS_S_S0_'...
GPGPU-Sim PTX: pre-decoding instructions for '_Z11kmeansPointPfiiiPiS_S_S0_'...
GPGPU-Sim PTX: reconvergence points for _Z11kmeansPointPfiiiPiS_S_S0_...
GPGPU-Sim PTX:  1 (potential) branch divergence @  PC=0x180 (_1.ptx:136) @!%p1 bra $Lt_1_4866;
GPGPU-Sim PTX:    immediate post dominator      @  PC=0x320 (_1.ptx:202) @!%p1 bra $Lt_1_7682;
GPGPU-Sim PTX:  2 (potential) branch divergence @  PC=0x1a0 (_1.ptx:140) @%p2 bra $Lt_1_8194;
GPGPU-Sim PTX:    immediate post dominator      @  PC=0x320 (_1.ptx:202) @!%p1 bra $Lt_1_7682;
GPGPU-Sim PTX:  3 (potential) branch divergence @  PC=0x1e8 (_1.ptx:151) @!%p3 bra $Lt_1_8450;
GPGPU-Sim PTX:    immediate post dominator      @  PC=0x2c8 (_1.ptx:185) setp.lt.f32 %p5, %f2, %f1;
GPGPU-Sim PTX:  4 (potential) branch divergence @  PC=0x2b0 (_1.ptx:180) @%p4 bra $Lt_1_6402;
GPGPU-Sim PTX:    immediate post dominator      @  PC=0x2b8 (_1.ptx:181) bra.uni $Lt_1_5890;
GPGPU-Sim PTX:  5 (potential) branch divergence @  PC=0x2b8 (_1.ptx:181) bra.uni $Lt_1_5890;
GPGPU-Sim PTX:    immediate post dominator      @  PC=0x2c8 (_1.ptx:185) setp.lt.f32 %p5, %f2, %f1;
GPGPU-Sim PTX:  6 (potential) branch divergence @  PC=0x2d0 (_1.ptx:186) @!%p5 bra $Lt_1_6914;
GPGPU-Sim PTX:    immediate post dominator      @  PC=0x2e8 (_1.ptx:192) add.s32 %r18, %r18, 1;
GPGPU-Sim PTX:  7 (potential) branch divergence @  PC=0x2f8 (_1.ptx:194) @%p6 bra $Lt_1_5634;
GPGPU-Sim PTX:    immediate post dominator      @  PC=0x300 (_1.ptx:195) bra.uni $Lt_1_4610;
GPGPU-Sim PTX:  8 (potential) branch divergence @  PC=0x300 (_1.ptx:195) bra.uni $Lt_1_4610;
GPGPU-Sim PTX:    immediate post dominator      @  PC=0x320 (_1.ptx:202) @!%p1 bra $Lt_1_7682;
GPGPU-Sim PTX:  9 (potential) branch divergence @  PC=0x310 (_1.ptx:198) bra.uni $Lt_1_4610;
GPGPU-Sim PTX:    immediate post dominator      @  PC=0x320 (_1.ptx:202) @!%p1 bra $Lt_1_7682;
GPGPU-Sim PTX: 10 (potential) branch divergence @  PC=0x320 (_1.ptx:202) @!%p1 bra $Lt_1_7682;
GPGPU-Sim PTX:    immediate post dominator      @  PC=0x350 (_1.ptx:211) exit;
GPGPU-Sim PTX: ... end of reconvergence points for _Z11kmeansPointPfiiiPiS_S_S0_
GPGPU-Sim PTX: ... done pre-decoding instructions for '_Z11kmeansPointPfiiiPiS_S_S0_'.
GPGPU-Sim PTX: allocating global region for "t_features" from 0x100 to 0x104 (global memory space)
GPGPU-Sim PTX: allocating global region for "t_features_flipped" from 0x104 to 0x108 (global memory space)
GPGPU-Sim PTX: allocating global region for "t_clusters" from 0x108 to 0x10c (global memory space)
GPGPU-Sim PTX: finished parsing EMBEDDED .ptx file _1.ptx
Adding _cuobjdump_1.ptx with cubin handle 1
GPGPU-Sim PTX: extracting embedded .ptx to temporary file "_ptx_1adBp3"
Running: cat _ptx_1adBp3 | sed 's/.version 1.5/.version 1.4/' | sed 's/, texmode_independent//' | sed 's/\(\.extern \.const\[1\] .b8 \w\+\)\[\]/\1\[1\]/' | sed 's/const\[.\]/const\[0\]/g' > _ptx2_wJxG5U
GPGPU-Sim PTX: generating ptxinfo using "$CUDA_INSTALL_PATH/bin/ptxas --gpu-name=sm_20 -v _ptx2_wJxG5U --output-file  /dev/null 2> _ptx_1adBp3info"
GPGPU-Sim PTX: Kernel '_Z11kmeansPointPfiiiPiS_S_S0_' : regs=15, lmem=0, smem=0, cmem=88
GPGPU-Sim PTX: Kernel '_Z14invert_mappingPfS_ii' : regs=10, lmem=0, smem=0, cmem=56
GPGPU-Sim PTX: removing ptxinfo using "rm -f _ptx_1adBp3 _ptx2_wJxG5U _ptx_1adBp3info"
GPGPU-Sim PTX: loading globals with explicit initializers... 
GPGPU-Sim PTX: finished loading globals (0 bytes total).
GPGPU-Sim PTX: loading constants with explicit initializers...  done.
GPGPU-Sim PTX: __cudaRegisterFunction _Z14invert_mappingPfS_ii : hostFun 0x0x402a98, fat_cubin_handle = 1
GPGPU-Sim PTX: in __cudaRegisterTexture:
GPGPU-Sim PTX:   int dim = 1
GPGPU-Sim PTX:   int norm = 0
GPGPU-Sim PTX:   int ext = 0
GPGPU-Sim PTX:   Execution warning: Not finished implementing "void __cudaRegisterTexture(void**, const textureReference*, const void**, const char*, int, int, int)"
GPGPU-Sim PTX: in __cudaRegisterTexture:
GPGPU-Sim PTX:   int dim = 1
GPGPU-Sim PTX:   int norm = 0
GPGPU-Sim PTX:   int ext = 0
GPGPU-Sim PTX:   Execution warning: Not finished implementing "void __cudaRegisterTexture(void**, const textureReference*, const void**, const char*, int, int, int)"
GPGPU-Sim PTX: in __cudaRegisterTexture:
GPGPU-Sim PTX:   int dim = 1
GPGPU-Sim PTX:   int norm = 0
GPGPU-Sim PTX:   int ext = 0
GPGPU-Sim PTX:   Execution warning: Not finished implementing "void __cudaRegisterTexture(void**, const textureReference*, const void**, const char*, int, int, int)"

I/O completed

Number of objects: 28672
Number of features: 138

GPGPU-Sim PTX: cudaLaunch for 0x0x402c28 (mode=performance simulation) on stream 0
GPGPU-Sim PTX: pushing kernel '_Z11kmeansPointPfiiiPiS_S_S0_' to stream 0, gridDim= (11,11,1) blockDim = (256,1,1) 
kernel '_Z11kmeansPointPfiiiPiS_S_S0_' transfer to GPU hardware scheduler
GPGPU-Sim uArch: Shader 1 bind to kernel 1 '_Z11kmeansPointPfiiiPiS_S_S0_'
GPGPU-Sim uArch: CTA/core = 6, limited by: threads
GPGPU-Sim uArch: core:  1, cta: 0 initialized @(1,0)
GPGPU-Sim uArch: Shader 2 bind to kernel 1 '_Z11kmeansPointPfiiiPiS_S_S0_'
GPGPU-Sim uArch: core:  2, cta: 0 initialized @(1,0)
GPGPU-Sim uArch: Shader 3 bind to kernel 1 '_Z11kmeansPointPfiiiPiS_S_S0_'
GPGPU-Sim uArch: core:  3, cta: 0 initialized @(1,0)
GPGPU-Sim uArch: Shader 4 bind to kernel 1 '_Z11kmeansPointPfiiiPiS_S_S0_'
GPGPU-Sim uArch: core:  4, cta: 0 initialized @(1,0)
GPGPU-Sim uArch: Shader 5 bind to kernel 1 '_Z11kmeansPointPfiiiPiS_S_S0_'
GPGPU-Sim uArch: core:  5, cta: 0 initialized @(1,0)
GPGPU-Sim uArch: Shader 6 bind to kernel 1 '_Z11kmeansPointPfiiiPiS_S_S0_'
GPGPU-Sim uArch: core:  6, cta: 0 initialized @(1,0)
GPGPU-Sim uArch: Shader 7 bind to kernel 1 '_Z11kmeansPointPfiiiPiS_S_S0_'
GPGPU-Sim uArch: core:  7, cta: 0 initialized @(1,0)
GPGPU-Sim uArch: Shader 8 bind to kernel 1 '_Z11kmeansPointPfiiiPiS_S_S0_'
GPGPU-Sim uArch: core:  8, cta: 0 initialized @(1,0)
GPGPU-Sim uArch: Shader 9 bind to kernel 1 '_Z11kmeansPointPfiiiPiS_S_S0_'
GPGPU-Sim uArch: core:  9, cta: 0 initialized @(1,0)
GPGPU-Sim uArch: Shader 10 bind to kernel 1 '_Z11kmeansPointPfiiiPiS_S_S0_'
GPGPU-Sim uArch: core: 10, cta: 0 initialized @(1,0)
GPGPU-Sim uArch: Shader 11 bind to kernel 1 '_Z11kmeansPointPfiiiPiS_S_S0_'
GPGPU-Sim uArch: core: 11, cta: 0 initialized @(1,0)
GPGPU-Sim uArch: Shader 12 bind to kernel 1 '_Z11kmeansPointPfiiiPiS_S_S0_'
GPGPU-Sim uArch: core: 12, cta: 0 initialized @(1,0)
GPGPU-Sim uArch: Shader 13 bind to kernel 1 '_Z11kmeansPointPfiiiPiS_S_S0_'
GPGPU-Sim uArch: core: 13, cta: 0 initialized @(1,0)
GPGPU-Sim uArch: Shader 14 bind to kernel 1 '_Z11kmeansPointPfiiiPiS_S_S0_'
GPGPU-Sim uArch: core: 14, cta: 0 initialized @(1,0)
GPGPU-Sim uArch: Shader 0 bind to kernel 1 '_Z11kmeansPointPfiiiPiS_S_S0_'
GPGPU-Sim uArch: core:  0, cta: 0 initialized @(1,0)
GPGPU-Sim uArch: core:  1, cta: 1 initialized @(2,0)
GPGPU-Sim uArch: core:  2, cta: 1 initialized @(2,0)
GPGPU-Sim uArch: core:  3, cta: 1 initialized @(2,0)
GPGPU-Sim uArch: core:  4, cta: 1 initialized @(2,0)
GPGPU-Sim uArch: core:  5, cta: 1 initialized @(2,0)
GPGPU-Sim uArch: core:  6, cta: 1 initialized @(2,0)
GPGPU-Sim uArch: core:  7, cta: 1 initialized @(2,0)
GPGPU-Sim uArch: core:  8, cta: 1 initialized @(2,0)
GPGPU-Sim uArch: core:  9, cta: 1 initialized @(2,0)
GPGPU-Sim uArch: core: 10, cta: 1 initialized @(2,0)
GPGPU-Sim uArch: core: 11, cta: 1 initialized @(2,0)
GPGPU-Sim uArch: core: 12, cta: 1 initialized @(2,0)
GPGPU-Sim uArch: core: 13, cta: 1 initialized @(2,0)
GPGPU-Sim uArch: core: 14, cta: 1 initialized @(2,0)
GPGPU-Sim uArch: core:  0, cta: 1 initialized @(2,0)
GPGPU-Sim uArch: core:  1, cta: 2 initialized @(3,0)
GPGPU-Sim uArch: core:  2, cta: 2 initialized @(3,0)
GPGPU-Sim uArch: core:  3, cta: 2 initialized @(3,0)
GPGPU-Sim uArch: core:  4, cta: 2 initialized @(3,0)
GPGPU-Sim uArch: core:  5, cta: 2 initialized @(3,0)
GPGPU-Sim uArch: core:  6, cta: 2 initialized @(3,0)
GPGPU-Sim uArch: core:  7, cta: 2 initialized @(3,0)
GPGPU-Sim uArch: core:  8, cta: 2 initialized @(3,0)
GPGPU-Sim uArch: core:  9, cta: 2 initialized @(3,0)
GPGPU-Sim uArch: core: 10, cta: 2 initialized @(3,0)
GPGPU-Sim uArch: core: 11, cta: 2 initialized @(3,0)
GPGPU-Sim uArch: core: 12, cta: 2 initialized @(3,0)
GPGPU-Sim uArch: core: 13, cta: 2 initialized @(3,0)
GPGPU-Sim uArch: core: 14, cta: 2 initialized @(3,0)
GPGPU-Sim uArch: core:  0, cta: 2 initialized @(3,0)
GPGPU-Sim uArch: core:  1, cta: 3 initialized @(4,0)
GPGPU-Sim uArch: core:  2, cta: 3 initialized @(4,0)
GPGPU-Sim uArch: core:  3, cta: 3 initialized @(4,0)
GPGPU-Sim uArch: core:  4, cta: 3 initialized @(4,0)
GPGPU-Sim uArch: core:  5, cta: 3 initialized @(4,0)
GPGPU-Sim uArch: core:  6, cta: 3 initialized @(4,0)
GPGPU-Sim uArch: core:  7, cta: 3 initialized @(4,0)
GPGPU-Sim uArch: core:  8, cta: 3 initialized @(4,0)
GPGPU-Sim uArch: core:  9, cta: 3 initialized @(4,0)
GPGPU-Sim uArch: core: 10, cta: 3 initialized @(4,0)
GPGPU-Sim uArch: core: 11, cta: 3 initialized @(4,0)
GPGPU-Sim uArch: core: 12, cta: 3 initialized @(4,0)
GPGPU-Sim uArch: core: 13, cta: 3 initialized @(4,0)
GPGPU-Sim uArch: core: 14, cta: 3 initialized @(4,0)
GPGPU-Sim uArch: core:  0, cta: 3 initialized @(4,0)
GPGPU-Sim uArch: core:  1, cta: 4 initialized @(5,0)
GPGPU-Sim uArch: core:  2, cta: 4 initialized @(5,0)
GPGPU-Sim uArch: core:  3, cta: 4 initialized @(5,0)
GPGPU-Sim uArch: core:  4, cta: 4 initialized @(5,0)
GPGPU-Sim uArch: core:  5, cta: 4 initialized @(5,0)
GPGPU-Sim uArch: core:  6, cta: 4 initialized @(5,0)
GPGPU-Sim uArch: core:  7, cta: 4 initialized @(5,0)
GPGPU-Sim uArch: core:  8, cta: 4 initialized @(5,0)
GPGPU-Sim uArch: core:  9, cta: 4 initialized @(5,0)
GPGPU-Sim uArch: core: 10, cta: 4 initialized @(5,0)
GPGPU-Sim uArch: core: 11, cta: 4 initialized @(5,0)
GPGPU-Sim uArch: core: 12, cta: 4 initialized @(5,0)
GPGPU-Sim uArch: core: 13, cta: 4 initialized @(5,0)
GPGPU-Sim uArch: core: 14, cta: 4 initialized @(5,0)
GPGPU-Sim uArch: core:  0, cta: 4 initialized @(5,0)
GPGPU-Sim uArch: core:  1, cta: 5 initialized @(6,0)
GPGPU-Sim uArch: core:  2, cta: 5 initialized @(6,0)
GPGPU-Sim uArch: core:  3, cta: 5 initialized @(6,0)
GPGPU-Sim uArch: core:  4, cta: 5 initialized @(6,0)
GPGPU-Sim uArch: core:  5, cta: 5 initialized @(6,0)
GPGPU-Sim uArch: core:  6, cta: 5 initialized @(6,0)
GPGPU-Sim uArch: core:  7, cta: 5 initialized @(6,0)
GPGPU-Sim uArch: core:  8, cta: 5 initialized @(6,0)
GPGPU-Sim uArch: core:  9, cta: 5 initialized @(6,0)
GPGPU-Sim uArch: core: 10, cta: 5 initialized @(6,0)
GPGPU-Sim uArch: core: 11, cta: 5 initialized @(6,0)
GPGPU-Sim uArch: core: 12, cta: 5 initialized @(6,0)
GPGPU-Sim uArch: core: 13, cta: 5 initialized @(6,0)
GPGPU-Sim uArch: core: 14, cta: 5 initialized @(6,0)
GPGPU-Sim uArch: core:  0, cta: 5 initialized @(6,0)
GPGPU-Sim PTX: 100000 instructions simulated : ctaid=(7,7,0) tid=(159,0,0)
GPGPU-Sim uArch: cycles simulated: 500  inst.: 147456 (ipc=294.9) sim_rate=147456 (inst/sec) elapsed = 0:0:00:01 / Tue Apr 16 16:45:34 2019
GPGPU-Sim PTX: 200000 instructions simulated : ctaid=(2,2,0) tid=(223,0,0)
GPGPU-Sim PTX: 300000 instructions simulated : ctaid=(3,5,0) tid=(255,0,0)
GPGPU-Sim uArch: cycles simulated: 1000  inst.: 299520 (ipc=299.5) sim_rate=149760 (inst/sec) elapsed = 0:0:00:02 / Tue Apr 16 16:45:35 2019
GPGPU-Sim PTX: 400000 instructions simulated : ctaid=(9,7,0) tid=(191,0,0)
GPGPU-Sim PTX: 500000 instructions simulated : ctaid=(9,4,0) tid=(191,0,0)
GPGPU-Sim PTX: 600000 instructions simulated : ctaid=(3,5,0) tid=(223,0,0)
GPGPU-Sim PTX: 700000 instructions simulated : ctaid=(1,4,0) tid=(159,0,0)
GPGPU-Sim PTX: 800000 instructions simulated : ctaid=(4,5,0) tid=(31,0,0)
GPGPU-Sim PTX: 900000 instructions simulated : ctaid=(0,5,0) tid=(63,0,0)
GPGPU-Sim uArch: cycles simulated: 2000  inst.: 849280 (ipc=424.6) sim_rate=283093 (inst/sec) elapsed = 0:0:00:03 / Tue Apr 16 16:45:36 2019
GPGPU-Sim uArch: cycles simulated: 3500  inst.: 853376 (ipc=243.8) sim_rate=213344 (inst/sec) elapsed = 0:0:00:04 / Tue Apr 16 16:45:37 2019
GPGPU-Sim uArch: cycles simulated: 5000  inst.: 864640 (ipc=172.9) sim_rate=172928 (inst/sec) elapsed = 0:0:00:05 / Tue Apr 16 16:45:38 2019
GPGPU-Sim uArch: cycles simulated: 7000  inst.: 882144 (ipc=126.0) sim_rate=147024 (inst/sec) elapsed = 0:0:00:06 / Tue Apr 16 16:45:39 2019
GPGPU-Sim uArch: cycles simulated: 8500  inst.: 895424 (ipc=105.3) sim_rate=127917 (inst/sec) elapsed = 0:0:00:07 / Tue Apr 16 16:45:40 2019
GPGPU-Sim uArch: cycles simulated: 10500  inst.: 911712 (ipc=86.8) sim_rate=113964 (inst/sec) elapsed = 0:0:00:08 / Tue Apr 16 16:45:41 2019
GPGPU-Sim PTX: 1000000 instructions simulated : ctaid=(6,0,0) tid=(31,0,0)
GPGPU-Sim uArch: cycles simulated: 12500  inst.: 928768 (ipc=74.3) sim_rate=103196 (inst/sec) elapsed = 0:0:00:09 / Tue Apr 16 16:45:42 2019
GPGPU-Sim uArch: cycles simulated: 14500  inst.: 956640 (ipc=66.0) sim_rate=95664 (inst/sec) elapsed = 0:0:00:10 / Tue Apr 16 16:45:43 2019
GPGPU-Sim uArch: cycles simulated: 16000  inst.: 969440 (ipc=60.6) sim_rate=88130 (inst/sec) elapsed = 0:0:00:11 / Tue Apr 16 16:45:44 2019
GPGPU-Sim uArch: cycles simulated: 18000  inst.: 989792 (ipc=55.0) sim_rate=82482 (inst/sec) elapsed = 0:0:00:12 / Tue Apr 16 16:45:45 2019
GPGPU-Sim uArch: cycles simulated: 20000  inst.: 1009792 (ipc=50.5) sim_rate=77676 (inst/sec) elapsed = 0:0:00:13 / Tue Apr 16 16:45:46 2019
GPGPU-Sim PTX: 1100000 instructions simulated : ctaid=(0,2,0) tid=(31,0,0)
GPGPU-Sim uArch: cycles simulated: 22000  inst.: 1030272 (ipc=46.8) sim_rate=73590 (inst/sec) elapsed = 0:0:00:14 / Tue Apr 16 16:45:47 2019
GPGPU-Sim uArch: cycles simulated: 23500  inst.: 1045728 (ipc=44.5) sim_rate=69715 (inst/sec) elapsed = 0:0:00:15 / Tue Apr 16 16:45:48 2019
GPGPU-Sim uArch: cycles simulated: 25500  inst.: 1064448 (ipc=41.7) sim_rate=66528 (inst/sec) elapsed = 0:0:00:16 / Tue Apr 16 16:45:49 2019
GPGPU-Sim uArch: cycles simulated: 27500  inst.: 1086752 (ipc=39.5) sim_rate=63926 (inst/sec) elapsed = 0:0:00:17 / Tue Apr 16 16:45:50 2019
GPGPU-Sim uArch: cycles simulated: 29000  inst.: 1102592 (ipc=38.0) sim_rate=61255 (inst/sec) elapsed = 0:0:00:18 / Tue Apr 16 16:45:51 2019
GPGPU-Sim uArch: cycles simulated: 31000  inst.: 1123712 (ipc=36.2) sim_rate=59142 (inst/sec) elapsed = 0:0:00:19 / Tue Apr 16 16:45:52 2019
GPGPU-Sim PTX: 1200000 instructions simulated : ctaid=(0,0,0) tid=(95,0,0)
GPGPU-Sim uArch: cycles simulated: 33000  inst.: 1143424 (ipc=34.6) sim_rate=57171 (inst/sec) elapsed = 0:0:00:20 / Tue Apr 16 16:45:53 2019
GPGPU-Sim uArch: cycles simulated: 35000  inst.: 1161184 (ipc=33.2) sim_rate=55294 (inst/sec) elapsed = 0:0:00:21 / Tue Apr 16 16:45:54 2019
GPGPU-Sim uArch: cycles simulated: 36500  inst.: 1178272 (ipc=32.3) sim_rate=53557 (inst/sec) elapsed = 0:0:00:22 / Tue Apr 16 16:45:55 2019
GPGPU-Sim uArch: cycles simulated: 38500  inst.: 1198944 (ipc=31.1) sim_rate=52128 (inst/sec) elapsed = 0:0:00:23 / Tue Apr 16 16:45:56 2019
GPGPU-Sim uArch: cycles simulated: 40000  inst.: 1213696 (ipc=30.3) sim_rate=50570 (inst/sec) elapsed = 0:0:00:24 / Tue Apr 16 16:45:57 2019
GPGPU-Sim PTX: 1300000 instructions simulated : ctaid=(3,0,0) tid=(95,0,0)
GPGPU-Sim uArch: cycles simulated: 42000  inst.: 1236832 (ipc=29.4) sim_rate=49473 (inst/sec) elapsed = 0:0:00:25 / Tue Apr 16 16:45:58 2019
GPGPU-Sim uArch: cycles simulated: 43500  inst.: 1252672 (ipc=28.8) sim_rate=48179 (inst/sec) elapsed = 0:0:00:26 / Tue Apr 16 16:45:59 2019
GPGPU-Sim uArch: cycles simulated: 45500  inst.: 1273184 (ipc=28.0) sim_rate=47154 (inst/sec) elapsed = 0:0:00:27 / Tue Apr 16 16:46:00 2019
GPGPU-Sim uArch: cycles simulated: 47000  inst.: 1289056 (ipc=27.4) sim_rate=46037 (inst/sec) elapsed = 0:0:00:28 / Tue Apr 16 16:46:01 2019
GPGPU-Sim uArch: cycles simulated: 49000  inst.: 1309472 (ipc=26.7) sim_rate=45154 (inst/sec) elapsed = 0:0:00:29 / Tue Apr 16 16:46:02 2019
GPGPU-Sim PTX: 1400000 instructions simulated : ctaid=(6,2,0) tid=(95,0,0)
GPGPU-Sim uArch: cycles simulated: 51000  inst.: 1328352 (ipc=26.0) sim_rate=44278 (inst/sec) elapsed = 0:0:00:30 / Tue Apr 16 16:46:03 2019
GPGPU-Sim uArch: cycles simulated: 52500  inst.: 1343680 (ipc=25.6) sim_rate=43344 (inst/sec) elapsed = 0:0:00:31 / Tue Apr 16 16:46:04 2019
GPGPU-Sim uArch: cycles simulated: 54500  inst.: 1366144 (ipc=25.1) sim_rate=42692 (inst/sec) elapsed = 0:0:00:32 / Tue Apr 16 16:46:05 2019
GPGPU-Sim uArch: cycles simulated: 56500  inst.: 1387072 (ipc=24.5) sim_rate=42032 (inst/sec) elapsed = 0:0:00:33 / Tue Apr 16 16:46:06 2019
GPGPU-Sim uArch: cycles simulated: 58000  inst.: 1404032 (ipc=24.2) sim_rate=41295 (inst/sec) elapsed = 0:0:00:34 / Tue Apr 16 16:46:07 2019
GPGPU-Sim uArch: cycles simulated: 60000  inst.: 1424192 (ipc=23.7) sim_rate=40691 (inst/sec) elapsed = 0:0:00:35 / Tue Apr 16 16:46:08 2019
GPGPU-Sim PTX: 1500000 instructions simulated : ctaid=(4,1,0) tid=(31,0,0)
GPGPU-Sim uArch: cycles simulated: 62000  inst.: 1446048 (ipc=23.3) sim_rate=40168 (inst/sec) elapsed = 0:0:00:36 / Tue Apr 16 16:46:09 2019
GPGPU-Sim uArch: cycles simulated: 64000  inst.: 1465824 (ipc=22.9) sim_rate=39616 (inst/sec) elapsed = 0:0:00:37 / Tue Apr 16 16:46:10 2019
GPGPU-Sim uArch: cycles simulated: 66000  inst.: 1489024 (ipc=22.6) sim_rate=39184 (inst/sec) elapsed = 0:0:00:38 / Tue Apr 16 16:46:11 2019
GPGPU-Sim uArch: cycles simulated: 68000  inst.: 1508736 (ipc=22.2) sim_rate=38685 (inst/sec) elapsed = 0:0:00:39 / Tue Apr 16 16:46:12 2019
GPGPU-Sim PTX: 1600000 instructions simulated : ctaid=(7,0,0) tid=(223,0,0)
GPGPU-Sim uArch: cycles simulated: 70000  inst.: 1532160 (ipc=21.9) sim_rate=38304 (inst/sec) elapsed = 0:0:00:40 / Tue Apr 16 16:46:13 2019
GPGPU-Sim uArch: cycles simulated: 72000  inst.: 1553600 (ipc=21.6) sim_rate=37892 (inst/sec) elapsed = 0:0:00:41 / Tue Apr 16 16:46:14 2019
GPGPU-Sim uArch: cycles simulated: 73500  inst.: 1570144 (ipc=21.4) sim_rate=37384 (inst/sec) elapsed = 0:0:00:42 / Tue Apr 16 16:46:15 2019
GPGPU-Sim uArch: cycles simulated: 75500  inst.: 1588000 (ipc=21.0) sim_rate=36930 (inst/sec) elapsed = 0:0:00:43 / Tue Apr 16 16:46:16 2019
GPGPU-Sim uArch: cycles simulated: 77500  inst.: 1608736 (ipc=20.8) sim_rate=36562 (inst/sec) elapsed = 0:0:00:44 / Tue Apr 16 16:46:17 2019
GPGPU-Sim PTX: 1700000 instructions simulated : ctaid=(2,1,0) tid=(223,0,0)
GPGPU-Sim uArch: cycles simulated: 79500  inst.: 1632000 (ipc=20.5) sim_rate=36266 (inst/sec) elapsed = 0:0:00:45 / Tue Apr 16 16:46:18 2019
GPGPU-Sim uArch: cycles simulated: 81500  inst.: 1655200 (ipc=20.3) sim_rate=35982 (inst/sec) elapsed = 0:0:00:46 / Tue Apr 16 16:46:19 2019
GPGPU-Sim uArch: cycles simulated: 83500  inst.: 1672000 (ipc=20.0) sim_rate=35574 (inst/sec) elapsed = 0:0:00:47 / Tue Apr 16 16:46:20 2019
GPGPU-Sim uArch: cycles simulated: 85500  inst.: 1697536 (ipc=19.9) sim_rate=35365 (inst/sec) elapsed = 0:0:00:48 / Tue Apr 16 16:46:21 2019
GPGPU-Sim uArch: cycles simulated: 87000  inst.: 1710624 (ipc=19.7) sim_rate=34910 (inst/sec) elapsed = 0:0:00:49 / Tue Apr 16 16:46:22 2019
GPGPU-Sim PTX: 1800000 instructions simulated : ctaid=(6,0,0) tid=(31,0,0)
GPGPU-Sim uArch: cycles simulated: 89000  inst.: 1730944 (ipc=19.4) sim_rate=34618 (inst/sec) elapsed = 0:0:00:50 / Tue Apr 16 16:46:23 2019
GPGPU-Sim uArch: cycles simulated: 91000  inst.: 1753984 (ipc=19.3) sim_rate=34391 (inst/sec) elapsed = 0:0:00:51 / Tue Apr 16 16:46:24 2019
GPGPU-Sim uArch: cycles simulated: 93000  inst.: 1777248 (ipc=19.1) sim_rate=34177 (inst/sec) elapsed = 0:0:00:52 / Tue Apr 16 16:46:25 2019
GPGPU-Sim uArch: cycles simulated: 95000  inst.: 1795552 (ipc=18.9) sim_rate=33878 (inst/sec) elapsed = 0:0:00:53 / Tue Apr 16 16:46:26 2019
GPGPU-Sim uArch: cycles simulated: 96500  inst.: 1813408 (ipc=18.8) sim_rate=33581 (inst/sec) elapsed = 0:0:00:54 / Tue Apr 16 16:46:27 2019
GPGPU-Sim PTX: 1900000 instructions simulated : ctaid=(10,0,0) tid=(223,0,0)
GPGPU-Sim uArch: cycles simulated: 98500  inst.: 1834208 (ipc=18.6) sim_rate=33349 (inst/sec) elapsed = 0:0:00:55 / Tue Apr 16 16:46:28 2019
GPGPU-Sim uArch: cycles simulated: 100500  inst.: 1854400 (ipc=18.5) sim_rate=33114 (inst/sec) elapsed = 0:0:00:56 / Tue Apr 16 16:46:29 2019
GPGPU-Sim uArch: cycles simulated: 102500  inst.: 1876544 (ipc=18.3) sim_rate=32921 (inst/sec) elapsed = 0:0:00:57 / Tue Apr 16 16:46:30 2019
GPGPU-Sim uArch: cycles simulated: 104500  inst.: 1897120 (ipc=18.2) sim_rate=32708 (inst/sec) elapsed = 0:0:00:58 / Tue Apr 16 16:46:31 2019
GPGPU-Sim uArch: cycles simulated: 106500  inst.: 1916640 (ipc=18.0) sim_rate=32485 (inst/sec) elapsed = 0:0:00:59 / Tue Apr 16 16:46:32 2019
GPGPU-Sim PTX: 2000000 instructions simulated : ctaid=(1,1,0) tid=(95,0,0)
GPGPU-Sim uArch: cycles simulated: 108000  inst.: 1934464 (ipc=17.9) sim_rate=32241 (inst/sec) elapsed = 0:0:01:00 / Tue Apr 16 16:46:33 2019
GPGPU-Sim uArch: cycles simulated: 110000  inst.: 1954368 (ipc=17.8) sim_rate=32038 (inst/sec) elapsed = 0:0:01:01 / Tue Apr 16 16:46:34 2019
GPGPU-Sim uArch: cycles simulated: 112000  inst.: 1972480 (ipc=17.6) sim_rate=31814 (inst/sec) elapsed = 0:0:01:02 / Tue Apr 16 16:46:35 2019
GPGPU-Sim uArch: cycles simulated: 114000  inst.: 1991296 (ipc=17.5) sim_rate=31607 (inst/sec) elapsed = 0:0:01:03 / Tue Apr 16 16:46:36 2019
GPGPU-Sim uArch: cycles simulated: 116000  inst.: 2013952 (ipc=17.4) sim_rate=31468 (inst/sec) elapsed = 0:0:01:04 / Tue Apr 16 16:46:37 2019
GPGPU-Sim PTX: 2100000 instructions simulated : ctaid=(4,1,0) tid=(31,0,0)
GPGPU-Sim uArch: cycles simulated: 118000  inst.: 2036064 (ipc=17.3) sim_rate=31324 (inst/sec) elapsed = 0:0:01:05 / Tue Apr 16 16:46:38 2019
GPGPU-Sim uArch: cycles simulated: 119500  inst.: 2053312 (ipc=17.2) sim_rate=31110 (inst/sec) elapsed = 0:0:01:06 / Tue Apr 16 16:46:39 2019
GPGPU-Sim uArch: cycles simulated: 121500  inst.: 2073632 (ipc=17.1) sim_rate=30949 (inst/sec) elapsed = 0:0:01:07 / Tue Apr 16 16:46:40 2019
GPGPU-Sim uArch: cycles simulated: 123500  inst.: 2093408 (ipc=17.0) sim_rate=30785 (inst/sec) elapsed = 0:0:01:08 / Tue Apr 16 16:46:41 2019
GPGPU-Sim uArch: cycles simulated: 125500  inst.: 2113696 (ipc=16.8) sim_rate=30633 (inst/sec) elapsed = 0:0:01:09 / Tue Apr 16 16:46:42 2019
GPGPU-Sim PTX: 2200000 instructions simulated : ctaid=(2,0,0) tid=(31,0,0)
GPGPU-Sim uArch: cycles simulated: 127500  inst.: 2137248 (ipc=16.8) sim_rate=30532 (inst/sec) elapsed = 0:0:01:10 / Tue Apr 16 16:46:43 2019
GPGPU-Sim uArch: cycles simulated: 129500  inst.: 2157120 (ipc=16.7) sim_rate=30381 (inst/sec) elapsed = 0:0:01:11 / Tue Apr 16 16:46:44 2019
GPGPU-Sim uArch: cycles simulated: 131500  inst.: 2178848 (ipc=16.6) sim_rate=30261 (inst/sec) elapsed = 0:0:01:12 / Tue Apr 16 16:46:45 2019
GPGPU-Sim uArch: cycles simulated: 133000  inst.: 2194464 (ipc=16.5) sim_rate=30061 (inst/sec) elapsed = 0:0:01:13 / Tue Apr 16 16:46:46 2019
GPGPU-Sim uArch: cycles simulated: 135000  inst.: 2216256 (ipc=16.4) sim_rate=29949 (inst/sec) elapsed = 0:0:01:14 / Tue Apr 16 16:46:47 2019
GPGPU-Sim PTX: 2300000 instructions simulated : ctaid=(3,1,0) tid=(95,0,0)
GPGPU-Sim uArch: cycles simulated: 137000  inst.: 2236832 (ipc=16.3) sim_rate=29824 (inst/sec) elapsed = 0:0:01:15 / Tue Apr 16 16:46:48 2019
GPGPU-Sim uArch: cycles simulated: 139000  inst.: 2258304 (ipc=16.2) sim_rate=29714 (inst/sec) elapsed = 0:0:01:16 / Tue Apr 16 16:46:49 2019
GPGPU-Sim uArch: cycles simulated: 141000  inst.: 2273856 (ipc=16.1) sim_rate=29530 (inst/sec) elapsed = 0:0:01:17 / Tue Apr 16 16:46:50 2019
GPGPU-Sim uArch: cycles simulated: 142500  inst.: 2294048 (ipc=16.1) sim_rate=29410 (inst/sec) elapsed = 0:0:01:18 / Tue Apr 16 16:46:51 2019
GPGPU-Sim uArch: cycles simulated: 144500  inst.: 2312320 (ipc=16.0) sim_rate=29269 (inst/sec) elapsed = 0:0:01:19 / Tue Apr 16 16:46:52 2019
GPGPU-Sim PTX: 2400000 instructions simulated : ctaid=(10,0,0) tid=(95,0,0)
GPGPU-Sim uArch: cycles simulated: 146500  inst.: 2335232 (ipc=15.9) sim_rate=29190 (inst/sec) elapsed = 0:0:01:20 / Tue Apr 16 16:46:53 2019
GPGPU-Sim uArch: cycles simulated: 148500  inst.: 2355488 (ipc=15.9) sim_rate=29080 (inst/sec) elapsed = 0:0:01:21 / Tue Apr 16 16:46:54 2019
GPGPU-Sim uArch: cycles simulated: 150500  inst.: 2375296 (ipc=15.8) sim_rate=28967 (inst/sec) elapsed = 0:0:01:22 / Tue Apr 16 16:46:55 2019
GPGPU-Sim uArch: cycles simulated: 152500  inst.: 2394688 (ipc=15.7) sim_rate=28851 (inst/sec) elapsed = 0:0:01:23 / Tue Apr 16 16:46:56 2019
GPGPU-Sim uArch: cycles simulated: 154000  inst.: 2414048 (ipc=15.7) sim_rate=28738 (inst/sec) elapsed = 0:0:01:24 / Tue Apr 16 16:46:57 2019
GPGPU-Sim PTX: 2500000 instructions simulated : ctaid=(2,2,0) tid=(31,0,0)
GPGPU-Sim uArch: cycles simulated: 156000  inst.: 2435392 (ipc=15.6) sim_rate=28651 (inst/sec) elapsed = 0:0:01:25 / Tue Apr 16 16:46:58 2019
GPGPU-Sim uArch: cycles simulated: 158000  inst.: 2456800 (ipc=15.5) sim_rate=28567 (inst/sec) elapsed = 0:0:01:26 / Tue Apr 16 16:46:59 2019
GPGPU-Sim uArch: cycles simulated: 160000  inst.: 2475968 (ipc=15.5) sim_rate=28459 (inst/sec) elapsed = 0:0:01:27 / Tue Apr 16 16:47:00 2019
GPGPU-Sim uArch: cycles simulated: 161500  inst.: 2492256 (ipc=15.4) sim_rate=28321 (inst/sec) elapsed = 0:0:01:28 / Tue Apr 16 16:47:01 2019
GPGPU-Sim uArch: cycles simulated: 163500  inst.: 2513920 (ipc=15.4) sim_rate=28246 (inst/sec) elapsed = 0:0:01:29 / Tue Apr 16 16:47:02 2019
GPGPU-Sim PTX: 2600000 instructions simulated : ctaid=(9,0,0) tid=(31,0,0)
GPGPU-Sim uArch: cycles simulated: 165500  inst.: 2535072 (ipc=15.3) sim_rate=28167 (inst/sec) elapsed = 0:0:01:30 / Tue Apr 16 16:47:03 2019
GPGPU-Sim uArch: cycles simulated: 167500  inst.: 2555584 (ipc=15.3) sim_rate=28083 (inst/sec) elapsed = 0:0:01:31 / Tue Apr 16 16:47:04 2019
GPGPU-Sim uArch: cycles simulated: 169500  inst.: 2575424 (ipc=15.2) sim_rate=27993 (inst/sec) elapsed = 0:0:01:32 / Tue Apr 16 16:47:05 2019
GPGPU-Sim uArch: cycles simulated: 171000  inst.: 2592960 (ipc=15.2) sim_rate=27881 (inst/sec) elapsed = 0:0:01:33 / Tue Apr 16 16:47:06 2019
GPGPU-Sim uArch: cycles simulated: 173000  inst.: 2613344 (ipc=15.1) sim_rate=27801 (inst/sec) elapsed = 0:0:01:34 / Tue Apr 16 16:47:07 2019
GPGPU-Sim PTX: 2700000 instructions simulated : ctaid=(8,0,0) tid=(95,0,0)
GPGPU-Sim uArch: cycles simulated: 175000  inst.: 2633664 (ipc=15.0) sim_rate=27722 (inst/sec) elapsed = 0:0:01:35 / Tue Apr 16 16:47:08 2019
GPGPU-Sim uArch: cycles simulated: 177000  inst.: 2656544 (ipc=15.0) sim_rate=27672 (inst/sec) elapsed = 0:0:01:36 / Tue Apr 16 16:47:09 2019
GPGPU-Sim uArch: cycles simulated: 179000  inst.: 2675072 (ipc=14.9) sim_rate=27578 (inst/sec) elapsed = 0:0:01:37 / Tue Apr 16 16:47:10 2019
GPGPU-Sim uArch: cycles simulated: 180500  inst.: 2687968 (ipc=14.9) sim_rate=27428 (inst/sec) elapsed = 0:0:01:38 / Tue Apr 16 16:47:11 2019
GPGPU-Sim uArch: cycles simulated: 182500  inst.: 2710752 (ipc=14.9) sim_rate=27381 (inst/sec) elapsed = 0:0:01:39 / Tue Apr 16 16:47:12 2019
GPGPU-Sim PTX: 2800000 instructions simulated : ctaid=(10,0,0) tid=(31,0,0)
GPGPU-Sim uArch: cycles simulated: 184500  inst.: 2730496 (ipc=14.8) sim_rate=27304 (inst/sec) elapsed = 0:0:01:40 / Tue Apr 16 16:47:13 2019
GPGPU-Sim uArch: cycles simulated: 186500  inst.: 2753984 (ipc=14.8) sim_rate=27267 (inst/sec) elapsed = 0:0:01:41 / Tue Apr 16 16:47:14 2019
GPGPU-Sim uArch: cycles simulated: 188500  inst.: 2775232 (ipc=14.7) sim_rate=27208 (inst/sec) elapsed = 0:0:01:42 / Tue Apr 16 16:47:15 2019
GPGPU-Sim uArch: cycles simulated: 190000  inst.: 2791424 (ipc=14.7) sim_rate=27101 (inst/sec) elapsed = 0:0:01:43 / Tue Apr 16 16:47:16 2019
GPGPU-Sim uArch: cycles simulated: 192000  inst.: 2809472 (ipc=14.6) sim_rate=27014 (inst/sec) elapsed = 0:0:01:44 / Tue Apr 16 16:47:17 2019
GPGPU-Sim PTX: 2900000 instructions simulated : ctaid=(6,2,0) tid=(31,0,0)
GPGPU-Sim uArch: cycles simulated: 194000  inst.: 2831488 (ipc=14.6) sim_rate=26966 (inst/sec) elapsed = 0:0:01:45 / Tue Apr 16 16:47:18 2019
GPGPU-Sim uArch: cycles simulated: 196000  inst.: 2853024 (ipc=14.6) sim_rate=26915 (inst/sec) elapsed = 0:0:01:46 / Tue Apr 16 16:47:19 2019
GPGPU-Sim uArch: cycles simulated: 198000  inst.: 2873696 (ipc=14.5) sim_rate=26856 (inst/sec) elapsed = 0:0:01:47 / Tue Apr 16 16:47:20 2019
GPGPU-Sim uArch: cycles simulated: 199500  inst.: 2886592 (ipc=14.5) sim_rate=26727 (inst/sec) elapsed = 0:0:01:48 / Tue Apr 16 16:47:21 2019
GPGPU-Sim uArch: cycles simulated: 201500  inst.: 2907712 (ipc=14.4) sim_rate=26676 (inst/sec) elapsed = 0:0:01:49 / Tue Apr 16 16:47:22 2019
GPGPU-Sim PTX: 3000000 instructions simulated : ctaid=(4,2,0) tid=(31,0,0)
GPGPU-Sim uArch: cycles simulated: 203500  inst.: 2929216 (ipc=14.4) sim_rate=26629 (inst/sec) elapsed = 0:0:01:50 / Tue Apr 16 16:47:23 2019
GPGPU-Sim uArch: cycles simulated: 205500  inst.: 2950240 (ipc=14.4) sim_rate=26578 (inst/sec) elapsed = 0:0:01:51 / Tue Apr 16 16:47:24 2019
GPGPU-Sim uArch: cycles simulated: 207500  inst.: 2971392 (ipc=14.3) sim_rate=26530 (inst/sec) elapsed = 0:0:01:52 / Tue Apr 16 16:47:25 2019
GPGPU-Sim uArch: cycles simulated: 209500  inst.: 2991520 (ipc=14.3) sim_rate=26473 (inst/sec) elapsed = 0:0:01:53 / Tue Apr 16 16:47:26 2019
GPGPU-Sim uArch: cycles simulated: 211000  inst.: 3009408 (ipc=14.3) sim_rate=26398 (inst/sec) elapsed = 0:0:01:54 / Tue Apr 16 16:47:27 2019
GPGPU-Sim PTX: 3100000 instructions simulated : ctaid=(3,1,0) tid=(223,0,0)
GPGPU-Sim uArch: cycles simulated: 213000  inst.: 3029216 (ipc=14.2) sim_rate=26341 (inst/sec) elapsed = 0:0:01:55 / Tue Apr 16 16:47:28 2019
GPGPU-Sim uArch: cycles simulated: 215000  inst.: 3048608 (ipc=14.2) sim_rate=26281 (inst/sec) elapsed = 0:0:01:56 / Tue Apr 16 16:47:29 2019
GPGPU-Sim uArch: cycles simulated: 217000  inst.: 3071552 (ipc=14.2) sim_rate=26252 (inst/sec) elapsed = 0:0:01:57 / Tue Apr 16 16:47:30 2019
GPGPU-Sim uArch: cycles simulated: 219000  inst.: 3089856 (ipc=14.1) sim_rate=26185 (inst/sec) elapsed = 0:0:01:58 / Tue Apr 16 16:47:31 2019
GPGPU-Sim uArch: cycles simulated: 221000  inst.: 3114016 (ipc=14.1) sim_rate=26168 (inst/sec) elapsed = 0:0:01:59 / Tue Apr 16 16:47:32 2019
GPGPU-Sim PTX: 3200000 instructions simulated : ctaid=(10,0,0) tid=(95,0,0)
GPGPU-Sim uArch: cycles simulated: 223000  inst.: 3130240 (ipc=14.0) sim_rate=26085 (inst/sec) elapsed = 0:0:02:00 / Tue Apr 16 16:47:33 2019
GPGPU-Sim uArch: cycles simulated: 224500  inst.: 3152160 (ipc=14.0) sim_rate=26050 (inst/sec) elapsed = 0:0:02:01 / Tue Apr 16 16:47:34 2019
GPGPU-Sim uArch: cycles simulated: 226500  inst.: 3171488 (ipc=14.0) sim_rate=25995 (inst/sec) elapsed = 0:0:02:02 / Tue Apr 16 16:47:35 2019
GPGPU-Sim uArch: cycles simulated: 228500  inst.: 3193792 (ipc=14.0) sim_rate=25965 (inst/sec) elapsed = 0:0:02:03 / Tue Apr 16 16:47:36 2019
GPGPU-Sim uArch: cycles simulated: 230500  inst.: 3213568 (ipc=13.9) sim_rate=25915 (inst/sec) elapsed = 0:0:02:04 / Tue Apr 16 16:47:37 2019
GPGPU-Sim PTX: 3300000 instructions simulated : ctaid=(6,1,0) tid=(31,0,0)
GPGPU-Sim uArch: cycles simulated: 232500  inst.: 3236352 (ipc=13.9) sim_rate=25890 (inst/sec) elapsed = 0:0:02:05 / Tue Apr 16 16:47:38 2019
GPGPU-Sim uArch: cycles simulated: 234500  inst.: 3258752 (ipc=13.9) sim_rate=25863 (inst/sec) elapsed = 0:0:02:06 / Tue Apr 16 16:47:39 2019
GPGPU-Sim uArch: cycles simulated: 236000  inst.: 3272352 (ipc=13.9) sim_rate=25766 (inst/sec) elapsed = 0:0:02:07 / Tue Apr 16 16:47:40 2019
GPGPU-Sim uArch: cycles simulated: 238000  inst.: 3291424 (ipc=13.8) sim_rate=25714 (inst/sec) elapsed = 0:0:02:08 / Tue Apr 16 16:47:41 2019
GPGPU-Sim uArch: cycles simulated: 240000  inst.: 3315936 (ipc=13.8) sim_rate=25704 (inst/sec) elapsed = 0:0:02:09 / Tue Apr 16 16:47:42 2019
GPGPU-Sim PTX: 3400000 instructions simulated : ctaid=(6,1,0) tid=(31,0,0)
GPGPU-Sim uArch: cycles simulated: 242000  inst.: 3334944 (ipc=13.8) sim_rate=25653 (inst/sec) elapsed = 0:0:02:10 / Tue Apr 16 16:47:43 2019
GPGPU-Sim uArch: cycles simulated: 244000  inst.: 3354208 (ipc=13.7) sim_rate=25604 (inst/sec) elapsed = 0:0:02:11 / Tue Apr 16 16:47:44 2019
GPGPU-Sim uArch: cycles simulated: 246000  inst.: 3378080 (ipc=13.7) sim_rate=25591 (inst/sec) elapsed = 0:0:02:12 / Tue Apr 16 16:47:45 2019
GPGPU-Sim uArch: cycles simulated: 247500  inst.: 3392608 (ipc=13.7) sim_rate=25508 (inst/sec) elapsed = 0:0:02:13 / Tue Apr 16 16:47:46 2019
GPGPU-Sim uArch: cycles simulated: 249500  inst.: 3413952 (ipc=13.7) sim_rate=25477 (inst/sec) elapsed = 0:0:02:14 / Tue Apr 16 16:47:47 2019
GPGPU-Sim PTX: 3500000 instructions simulated : ctaid=(2,1,0) tid=(95,0,0)
GPGPU-Sim uArch: cycles simulated: 251500  inst.: 3435456 (ipc=13.7) sim_rate=25447 (inst/sec) elapsed = 0:0:02:15 / Tue Apr 16 16:47:48 2019
GPGPU-Sim uArch: cycles simulated: 253500  inst.: 3454560 (ipc=13.6) sim_rate=25401 (inst/sec) elapsed = 0:0:02:16 / Tue Apr 16 16:47:49 2019
GPGPU-Sim uArch: cycles simulated: 255000  inst.: 3471840 (ipc=13.6) sim_rate=25341 (inst/sec) elapsed = 0:0:02:17 / Tue Apr 16 16:47:50 2019
GPGPU-Sim uArch: cycles simulated: 257000  inst.: 3491552 (ipc=13.6) sim_rate=25301 (inst/sec) elapsed = 0:0:02:18 / Tue Apr 16 16:47:51 2019
GPGPU-Sim uArch: cycles simulated: 259000  inst.: 3513792 (ipc=13.6) sim_rate=25279 (inst/sec) elapsed = 0:0:02:19 / Tue Apr 16 16:47:52 2019
GPGPU-Sim PTX: 3600000 instructions simulated : ctaid=(8,0,0) tid=(31,0,0)
GPGPU-Sim uArch: cycles simulated: 261000  inst.: 3532288 (ipc=13.5) sim_rate=25230 (inst/sec) elapsed = 0:0:02:20 / Tue Apr 16 16:47:53 2019
GPGPU-Sim uArch: cycles simulated: 263000  inst.: 3552896 (ipc=13.5) sim_rate=25197 (inst/sec) elapsed = 0:0:02:21 / Tue Apr 16 16:47:54 2019
GPGPU-Sim uArch: cycles simulated: 265000  inst.: 3573984 (ipc=13.5) sim_rate=25168 (inst/sec) elapsed = 0:0:02:22 / Tue Apr 16 16:47:55 2019
GPGPU-Sim uArch: cycles simulated: 266500  inst.: 3590592 (ipc=13.5) sim_rate=25109 (inst/sec) elapsed = 0:0:02:23 / Tue Apr 16 16:47:56 2019
GPGPU-Sim uArch: cycles simulated: 268500  inst.: 3610976 (ipc=13.4) sim_rate=25076 (inst/sec) elapsed = 0:0:02:24 / Tue Apr 16 16:47:57 2019
GPGPU-Sim PTX: 3700000 instructions simulated : ctaid=(6,0,0) tid=(31,0,0)
GPGPU-Sim uArch: cycles simulated: 270500  inst.: 3630656 (ipc=13.4) sim_rate=25039 (inst/sec) elapsed = 0:0:02:25 / Tue Apr 16 16:47:58 2019
GPGPU-Sim uArch: cycles simulated: 272500  inst.: 3654912 (ipc=13.4) sim_rate=25033 (inst/sec) elapsed = 0:0:02:26 / Tue Apr 16 16:47:59 2019
GPGPU-Sim uArch: cycles simulated: 274500  inst.: 3676000 (ipc=13.4) sim_rate=25006 (inst/sec) elapsed = 0:0:02:27 / Tue Apr 16 16:48:00 2019
GPGPU-Sim uArch: cycles simulated: 276500  inst.: 3694976 (ipc=13.4) sim_rate=24966 (inst/sec) elapsed = 0:0:02:28 / Tue Apr 16 16:48:01 2019
GPGPU-Sim uArch: cycles simulated: 278000  inst.: 3711520 (ipc=13.4) sim_rate=24909 (inst/sec) elapsed = 0:0:02:29 / Tue Apr 16 16:48:02 2019
GPGPU-Sim PTX: 3800000 instructions simulated : ctaid=(2,0,0) tid=(223,0,0)
GPGPU-Sim uArch: cycles simulated: 280000  inst.: 3731712 (ipc=13.3) sim_rate=24878 (inst/sec) elapsed = 0:0:02:30 / Tue Apr 16 16:48:03 2019
GPGPU-Sim uArch: cycles simulated: 282000  inst.: 3752128 (ipc=13.3) sim_rate=24848 (inst/sec) elapsed = 0:0:02:31 / Tue Apr 16 16:48:04 2019
GPGPU-Sim uArch: cycles simulated: 284000  inst.: 3775136 (ipc=13.3) sim_rate=24836 (inst/sec) elapsed = 0:0:02:32 / Tue Apr 16 16:48:05 2019
GPGPU-Sim uArch: cycles simulated: 286000  inst.: 3795680 (ipc=13.3) sim_rate=24808 (inst/sec) elapsed = 0:0:02:33 / Tue Apr 16 16:48:06 2019
GPGPU-Sim uArch: cycles simulated: 287500  inst.: 3811904 (ipc=13.3) sim_rate=24752 (inst/sec) elapsed = 0:0:02:34 / Tue Apr 16 16:48:07 2019
GPGPU-Sim PTX: 3900000 instructions simulated : ctaid=(3,1,0) tid=(95,0,0)
GPGPU-Sim uArch: cycles simulated: 289500  inst.: 3832256 (ipc=13.2) sim_rate=24724 (inst/sec) elapsed = 0:0:02:35 / Tue Apr 16 16:48:08 2019
GPGPU-Sim uArch: cycles simulated: 291500  inst.: 3855488 (ipc=13.2) sim_rate=24714 (inst/sec) elapsed = 0:0:02:36 / Tue Apr 16 16:48:09 2019
GPGPU-Sim uArch: cycles simulated: 293500  inst.: 3874016 (ipc=13.2) sim_rate=24675 (inst/sec) elapsed = 0:0:02:37 / Tue Apr 16 16:48:10 2019
GPGPU-Sim uArch: cycles simulated: 295000  inst.: 3890848 (ipc=13.2) sim_rate=24625 (inst/sec) elapsed = 0:0:02:38 / Tue Apr 16 16:48:11 2019
GPGPU-Sim uArch: cycles simulated: 297000  inst.: 3914432 (ipc=13.2) sim_rate=24619 (inst/sec) elapsed = 0:0:02:39 / Tue Apr 16 16:48:12 2019
GPGPU-Sim PTX: 4000000 instructions simulated : ctaid=(5,1,0) tid=(159,0,0)
GPGPU-Sim uArch: cycles simulated: 299000  inst.: 3932864 (ipc=13.2) sim_rate=24580 (inst/sec) elapsed = 0:0:02:40 / Tue Apr 16 16:48:13 2019
GPGPU-Sim uArch: cycles simulated: 301000  inst.: 3956736 (ipc=13.1) sim_rate=24576 (inst/sec) elapsed = 0:0:02:41 / Tue Apr 16 16:48:14 2019
GPGPU-Sim uArch: cycles simulated: 303000  inst.: 3978592 (ipc=13.1) sim_rate=24559 (inst/sec) elapsed = 0:0:02:42 / Tue Apr 16 16:48:15 2019
GPGPU-Sim uArch: cycles simulated: 305000  inst.: 3998848 (ipc=13.1) sim_rate=24532 (inst/sec) elapsed = 0:0:02:43 / Tue Apr 16 16:48:16 2019
GPGPU-Sim uArch: cycles simulated: 307000  inst.: 4021856 (ipc=13.1) sim_rate=24523 (inst/sec) elapsed = 0:0:02:44 / Tue Apr 16 16:48:17 2019
GPGPU-Sim PTX: 4100000 instructions simulated : ctaid=(0,1,0) tid=(159,0,0)
GPGPU-Sim uArch: cycles simulated: 308500  inst.: 4038304 (ipc=13.1) sim_rate=24474 (inst/sec) elapsed = 0:0:02:45 / Tue Apr 16 16:48:18 2019
GPGPU-Sim uArch: cycles simulated: 310500  inst.: 4056000 (ipc=13.1) sim_rate=24433 (inst/sec) elapsed = 0:0:02:46 / Tue Apr 16 16:48:19 2019
GPGPU-Sim uArch: cycles simulated: 312500  inst.: 4078080 (ipc=13.0) sim_rate=24419 (inst/sec) elapsed = 0:0:02:47 / Tue Apr 16 16:48:20 2019
GPGPU-Sim uArch: cycles simulated: 314500  inst.: 4099296 (ipc=13.0) sim_rate=24400 (inst/sec) elapsed = 0:0:02:48 / Tue Apr 16 16:48:21 2019
GPGPU-Sim uArch: cycles simulated: 316500  inst.: 4117952 (ipc=13.0) sim_rate=24366 (inst/sec) elapsed = 0:0:02:49 / Tue Apr 16 16:48:22 2019
GPGPU-Sim PTX: 4200000 instructions simulated : ctaid=(7,0,0) tid=(95,0,0)
GPGPU-Sim uArch: cycles simulated: 318500  inst.: 4138944 (ipc=13.0) sim_rate=24346 (inst/sec) elapsed = 0:0:02:50 / Tue Apr 16 16:48:23 2019
GPGPU-Sim uArch: cycles simulated: 320000  inst.: 4156288 (ipc=13.0) sim_rate=24305 (inst/sec) elapsed = 0:0:02:51 / Tue Apr 16 16:48:24 2019
GPGPU-Sim uArch: cycles simulated: 322000  inst.: 4178272 (ipc=13.0) sim_rate=24292 (inst/sec) elapsed = 0:0:02:52 / Tue Apr 16 16:48:25 2019
GPGPU-Sim uArch: cycles simulated: 324000  inst.: 4200032 (ipc=13.0) sim_rate=24277 (inst/sec) elapsed = 0:0:02:53 / Tue Apr 16 16:48:26 2019
GPGPU-Sim uArch: cycles simulated: 326000  inst.: 4221568 (ipc=12.9) sim_rate=24261 (inst/sec) elapsed = 0:0:02:54 / Tue Apr 16 16:48:27 2019
GPGPU-Sim PTX: 4300000 instructions simulated : ctaid=(5,0,0) tid=(31,0,0)
GPGPU-Sim uArch: cycles simulated: 328000  inst.: 4240640 (ipc=12.9) sim_rate=24232 (inst/sec) elapsed = 0:0:02:55 / Tue Apr 16 16:48:28 2019
GPGPU-Sim uArch: cycles simulated: 330000  inst.: 4257472 (ipc=12.9) sim_rate=24190 (inst/sec) elapsed = 0:0:02:56 / Tue Apr 16 16:48:29 2019
GPGPU-Sim uArch: cycles simulated: 332000  inst.: 4281856 (ipc=12.9) sim_rate=24191 (inst/sec) elapsed = 0:0:02:57 / Tue Apr 16 16:48:30 2019
GPGPU-Sim uArch: cycles simulated: 333500  inst.: 4297920 (ipc=12.9) sim_rate=24145 (inst/sec) elapsed = 0:0:02:58 / Tue Apr 16 16:48:31 2019
GPGPU-Sim uArch: cycles simulated: 335500  inst.: 4319808 (ipc=12.9) sim_rate=24133 (inst/sec) elapsed = 0:0:02:59 / Tue Apr 16 16:48:32 2019
GPGPU-Sim PTX: 4400000 instructions simulated : ctaid=(8,0,0) tid=(223,0,0)
GPGPU-Sim uArch: cycles simulated: 337500  inst.: 4339680 (ipc=12.9) sim_rate=24109 (inst/sec) elapsed = 0:0:03:00 / Tue Apr 16 16:48:33 2019
GPGPU-Sim uArch: cycles simulated: 339500  inst.: 4358464 (ipc=12.8) sim_rate=24079 (inst/sec) elapsed = 0:0:03:01 / Tue Apr 16 16:48:34 2019
GPGPU-Sim uArch: cycles simulated: 341500  inst.: 4381856 (ipc=12.8) sim_rate=24076 (inst/sec) elapsed = 0:0:03:02 / Tue Apr 16 16:48:35 2019
GPGPU-Sim uArch: cycles simulated: 343500  inst.: 4401632 (ipc=12.8) sim_rate=24052 (inst/sec) elapsed = 0:0:03:03 / Tue Apr 16 16:48:36 2019
GPGPU-Sim uArch: cycles simulated: 345500  inst.: 4425376 (ipc=12.8) sim_rate=24050 (inst/sec) elapsed = 0:0:03:04 / Tue Apr 16 16:48:37 2019
GPGPU-Sim PTX: 4500000 instructions simulated : ctaid=(7,1,0) tid=(95,0,0)
GPGPU-Sim uArch: cycles simulated: 347000  inst.: 4442464 (ipc=12.8) sim_rate=24013 (inst/sec) elapsed = 0:0:03:05 / Tue Apr 16 16:48:38 2019
GPGPU-Sim uArch: cycles simulated: 349000  inst.: 4466720 (ipc=12.8) sim_rate=24014 (inst/sec) elapsed = 0:0:03:06 / Tue Apr 16 16:48:39 2019
GPGPU-Sim uArch: cycles simulated: 351000  inst.: 4484928 (ipc=12.8) sim_rate=23983 (inst/sec) elapsed = 0:0:03:07 / Tue Apr 16 16:48:40 2019
GPGPU-Sim uArch: cycles simulated: 353000  inst.: 4508448 (ipc=12.8) sim_rate=23981 (inst/sec) elapsed = 0:0:03:08 / Tue Apr 16 16:48:41 2019
GPGPU-Sim PTX: 4600000 instructions simulated : ctaid=(8,0,0) tid=(95,0,0)
GPGPU-Sim uArch: cycles simulated: 355000  inst.: 4527040 (ipc=12.8) sim_rate=23952 (inst/sec) elapsed = 0:0:03:09 / Tue Apr 16 16:48:42 2019
GPGPU-Sim uArch: cycles simulated: 357000  inst.: 4554400 (ipc=12.8) sim_rate=23970 (inst/sec) elapsed = 0:0:03:10 / Tue Apr 16 16:48:43 2019
GPGPU-Sim uArch: cycles simulated: 359000  inst.: 4570272 (ipc=12.7) sim_rate=23928 (inst/sec) elapsed = 0:0:03:11 / Tue Apr 16 16:48:44 2019
GPGPU-Sim uArch: cycles simulated: 360500  inst.: 4587680 (ipc=12.7) sim_rate=23894 (inst/sec) elapsed = 0:0:03:12 / Tue Apr 16 16:48:45 2019
GPGPU-Sim uArch: cycles simulated: 362500  inst.: 4609760 (ipc=12.7) sim_rate=23884 (inst/sec) elapsed = 0:0:03:13 / Tue Apr 16 16:48:46 2019
GPGPU-Sim PTX: 4700000 instructions simulated : ctaid=(8,0,0) tid=(223,0,0)
GPGPU-Sim uArch: cycles simulated: 364500  inst.: 4630112 (ipc=12.7) sim_rate=23866 (inst/sec) elapsed = 0:0:03:14 / Tue Apr 16 16:48:47 2019
GPGPU-Sim uArch: cycles simulated: 366500  inst.: 4650528 (ipc=12.7) sim_rate=23848 (inst/sec) elapsed = 0:0:03:15 / Tue Apr 16 16:48:48 2019
GPGPU-Sim uArch: cycles simulated: 368500  inst.: 4671072 (ipc=12.7) sim_rate=23832 (inst/sec) elapsed = 0:0:03:16 / Tue Apr 16 16:48:49 2019
GPGPU-Sim uArch: cycles simulated: 370500  inst.: 4697312 (ipc=12.7) sim_rate=23844 (inst/sec) elapsed = 0:0:03:17 / Tue Apr 16 16:48:50 2019
GPGPU-Sim uArch: cycles simulated: 372500  inst.: 4716832 (ipc=12.7) sim_rate=23822 (inst/sec) elapsed = 0:0:03:18 / Tue Apr 16 16:48:51 2019
GPGPU-Sim PTX: 4800000 instructions simulated : ctaid=(8,0,0) tid=(159,0,0)
GPGPU-Sim uArch: cycles simulated: 374000  inst.: 4733600 (ipc=12.7) sim_rate=23786 (inst/sec) elapsed = 0:0:03:19 / Tue Apr 16 16:48:52 2019
GPGPU-Sim uArch: cycles simulated: 376000  inst.: 4755808 (ipc=12.6) sim_rate=23779 (inst/sec) elapsed = 0:0:03:20 / Tue Apr 16 16:48:53 2019
GPGPU-Sim uArch: cycles simulated: 378000  inst.: 4773216 (ipc=12.6) sim_rate=23747 (inst/sec) elapsed = 0:0:03:21 / Tue Apr 16 16:48:54 2019
GPGPU-Sim uArch: cycles simulated: 380000  inst.: 4796480 (ipc=12.6) sim_rate=23744 (inst/sec) elapsed = 0:0:03:22 / Tue Apr 16 16:48:55 2019
GPGPU-Sim uArch: cycles simulated: 382000  inst.: 4817280 (ipc=12.6) sim_rate=23730 (inst/sec) elapsed = 0:0:03:23 / Tue Apr 16 16:48:56 2019
GPGPU-Sim PTX: 4900000 instructions simulated : ctaid=(1,1,0) tid=(95,0,0)
GPGPU-Sim uArch: cycles simulated: 384000  inst.: 4839840 (ipc=12.6) sim_rate=23724 (inst/sec) elapsed = 0:0:03:24 / Tue Apr 16 16:48:57 2019
GPGPU-Sim uArch: cycles simulated: 385500  inst.: 4861312 (ipc=12.6) sim_rate=23713 (inst/sec) elapsed = 0:0:03:25 / Tue Apr 16 16:48:58 2019
GPGPU-Sim uArch: cycles simulated: 387500  inst.: 4873664 (ipc=12.6) sim_rate=23658 (inst/sec) elapsed = 0:0:03:26 / Tue Apr 16 16:48:59 2019
GPGPU-Sim uArch: cycles simulated: 389500  inst.: 4902912 (ipc=12.6) sim_rate=23685 (inst/sec) elapsed = 0:0:03:27 / Tue Apr 16 16:49:00 2019
GPGPU-Sim uArch: cycles simulated: 391500  inst.: 4920928 (ipc=12.6) sim_rate=23658 (inst/sec) elapsed = 0:0:03:28 / Tue Apr 16 16:49:01 2019
GPGPU-Sim PTX: 5000000 instructions simulated : ctaid=(3,1,0) tid=(159,0,0)
GPGPU-Sim uArch: cycles simulated: 393500  inst.: 4942368 (ipc=12.6) sim_rate=23647 (inst/sec) elapsed = 0:0:03:29 / Tue Apr 16 16:49:02 2019
GPGPU-Sim uArch: cycles simulated: 395000  inst.: 4959232 (ipc=12.6) sim_rate=23615 (inst/sec) elapsed = 0:0:03:30 / Tue Apr 16 16:49:03 2019
GPGPU-Sim uArch: cycles simulated: 397000  inst.: 4980736 (ipc=12.5) sim_rate=23605 (inst/sec) elapsed = 0:0:03:31 / Tue Apr 16 16:49:04 2019
GPGPU-Sim uArch: cycles simulated: 399000  inst.: 5000064 (ipc=12.5) sim_rate=23585 (inst/sec) elapsed = 0:0:03:32 / Tue Apr 16 16:49:05 2019
GPGPU-Sim uArch: cycles simulated: 401000  inst.: 5021696 (ipc=12.5) sim_rate=23576 (inst/sec) elapsed = 0:0:03:33 / Tue Apr 16 16:49:06 2019
GPGPU-Sim PTX: 5100000 instructions simulated : ctaid=(6,2,0) tid=(31,0,0)
GPGPU-Sim uArch: cycles simulated: 403000  inst.: 5046656 (ipc=12.5) sim_rate=23582 (inst/sec) elapsed = 0:0:03:34 / Tue Apr 16 16:49:07 2019
GPGPU-Sim uArch: cycles simulated: 405000  inst.: 5064192 (ipc=12.5) sim_rate=23554 (inst/sec) elapsed = 0:0:03:35 / Tue Apr 16 16:49:08 2019
GPGPU-Sim uArch: cycles simulated: 406500  inst.: 5079840 (ipc=12.5) sim_rate=23517 (inst/sec) elapsed = 0:0:03:36 / Tue Apr 16 16:49:09 2019
GPGPU-Sim uArch: cycles simulated: 408500  inst.: 5102080 (ipc=12.5) sim_rate=23511 (inst/sec) elapsed = 0:0:03:37 / Tue Apr 16 16:49:10 2019
GPGPU-Sim uArch: cycles simulated: 410500  inst.: 5121600 (ipc=12.5) sim_rate=23493 (inst/sec) elapsed = 0:0:03:38 / Tue Apr 16 16:49:11 2019
GPGPU-Sim PTX: 5200000 instructions simulated : ctaid=(3,1,0) tid=(31,0,0)
GPGPU-Sim uArch: cycles simulated: 412500  inst.: 5144096 (ipc=12.5) sim_rate=23489 (inst/sec) elapsed = 0:0:03:39 / Tue Apr 16 16:49:12 2019
GPGPU-Sim uArch: cycles simulated: 414500  inst.: 5163840 (ipc=12.5) sim_rate=23472 (inst/sec) elapsed = 0:0:03:40 / Tue Apr 16 16:49:13 2019
GPGPU-Sim uArch: cycles simulated: 416500  inst.: 5182976 (ipc=12.4) sim_rate=23452 (inst/sec) elapsed = 0:0:03:41 / Tue Apr 16 16:49:14 2019
GPGPU-Sim uArch: cycles simulated: 418000  inst.: 5199072 (ipc=12.4) sim_rate=23419 (inst/sec) elapsed = 0:0:03:42 / Tue Apr 16 16:49:15 2019
GPGPU-Sim uArch: cycles simulated: 420000  inst.: 5220064 (ipc=12.4) sim_rate=23408 (inst/sec) elapsed = 0:0:03:43 / Tue Apr 16 16:49:16 2019
GPGPU-Sim PTX: 5300000 instructions simulated : ctaid=(7,1,0) tid=(95,0,0)
GPGPU-Sim uArch: cycles simulated: 422000  inst.: 5240416 (ipc=12.4) sim_rate=23394 (inst/sec) elapsed = 0:0:03:44 / Tue Apr 16 16:49:17 2019
GPGPU-Sim uArch: cycles simulated: 424000  inst.: 5261472 (ipc=12.4) sim_rate=23384 (inst/sec) elapsed = 0:0:03:45 / Tue Apr 16 16:49:18 2019
GPGPU-Sim uArch: cycles simulated: 426000  inst.: 5286976 (ipc=12.4) sim_rate=23393 (inst/sec) elapsed = 0:0:03:46 / Tue Apr 16 16:49:19 2019
GPGPU-Sim uArch: cycles simulated: 428000  inst.: 5306304 (ipc=12.4) sim_rate=23375 (inst/sec) elapsed = 0:0:03:47 / Tue Apr 16 16:49:20 2019
GPGPU-Sim uArch: cycles simulated: 429500  inst.: 5321824 (ipc=12.4) sim_rate=23341 (inst/sec) elapsed = 0:0:03:48 / Tue Apr 16 16:49:21 2019
GPGPU-Sim PTX: 5400000 instructions simulated : ctaid=(8,0,0) tid=(159,0,0)
GPGPU-Sim uArch: cycles simulated: 431500  inst.: 5341536 (ipc=12.4) sim_rate=23325 (inst/sec) elapsed = 0:0:03:49 / Tue Apr 16 16:49:22 2019
GPGPU-Sim uArch: cycles simulated: 433500  inst.: 5366528 (ipc=12.4) sim_rate=23332 (inst/sec) elapsed = 0:0:03:50 / Tue Apr 16 16:49:23 2019
GPGPU-Sim uArch: cycles simulated: 435500  inst.: 5385920 (ipc=12.4) sim_rate=23315 (inst/sec) elapsed = 0:0:03:51 / Tue Apr 16 16:49:24 2019
GPGPU-Sim uArch: cycles simulated: 437500  inst.: 5403808 (ipc=12.4) sim_rate=23292 (inst/sec) elapsed = 0:0:03:52 / Tue Apr 16 16:49:25 2019
GPGPU-Sim PTX: 5500000 instructions simulated : ctaid=(8,0,0) tid=(223,0,0)
GPGPU-Sim uArch: cycles simulated: 439500  inst.: 5428512 (ipc=12.4) sim_rate=23298 (inst/sec) elapsed = 0:0:03:53 / Tue Apr 16 16:49:26 2019
GPGPU-Sim uArch: cycles simulated: 441500  inst.: 5445920 (ipc=12.3) sim_rate=23273 (inst/sec) elapsed = 0:0:03:54 / Tue Apr 16 16:49:27 2019
GPGPU-Sim uArch: cycles simulated: 443000  inst.: 5460864 (ipc=12.3) sim_rate=23237 (inst/sec) elapsed = 0:0:03:55 / Tue Apr 16 16:49:28 2019
GPGPU-Sim uArch: cycles simulated: 445000  inst.: 5484800 (ipc=12.3) sim_rate=23240 (inst/sec) elapsed = 0:0:03:56 / Tue Apr 16 16:49:29 2019
GPGPU-Sim uArch: cycles simulated: 447000  inst.: 5501888 (ipc=12.3) sim_rate=23214 (inst/sec) elapsed = 0:0:03:57 / Tue Apr 16 16:49:30 2019
GPGPU-Sim PTX: 5600000 instructions simulated : ctaid=(2,1,0) tid=(31,0,0)
GPGPU-Sim uArch: cycles simulated: 449000  inst.: 5524384 (ipc=12.3) sim_rate=23211 (inst/sec) elapsed = 0:0:03:58 / Tue Apr 16 16:49:31 2019
GPGPU-Sim uArch: cycles simulated: 451000  inst.: 5546912 (ipc=12.3) sim_rate=23208 (inst/sec) elapsed = 0:0:03:59 / Tue Apr 16 16:49:32 2019
GPGPU-Sim uArch: cycles simulated: 453000  inst.: 5566240 (ipc=12.3) sim_rate=23192 (inst/sec) elapsed = 0:0:04:00 / Tue Apr 16 16:49:33 2019
GPGPU-Sim uArch: cycles simulated: 455000  inst.: 5585344 (ipc=12.3) sim_rate=23175 (inst/sec) elapsed = 0:0:04:01 / Tue Apr 16 16:49:34 2019
GPGPU-Sim uArch: cycles simulated: 456500  inst.: 5600544 (ipc=12.3) sim_rate=23142 (inst/sec) elapsed = 0:0:04:02 / Tue Apr 16 16:49:35 2019
GPGPU-Sim uArch: cycles simulated: 458500  inst.: 5623232 (ipc=12.3) sim_rate=23140 (inst/sec) elapsed = 0:0:04:03 / Tue Apr 16 16:49:36 2019
GPGPU-Sim PTX: 5700000 instructions simulated : ctaid=(2,1,0) tid=(159,0,0)
GPGPU-Sim uArch: cycles simulated: 460500  inst.: 5641760 (ipc=12.3) sim_rate=23121 (inst/sec) elapsed = 0:0:04:04 / Tue Apr 16 16:49:37 2019
GPGPU-Sim uArch: cycles simulated: 462500  inst.: 5663488 (ipc=12.2) sim_rate=23116 (inst/sec) elapsed = 0:0:04:05 / Tue Apr 16 16:49:38 2019
GPGPU-Sim uArch: cycles simulated: 464500  inst.: 5682560 (ipc=12.2) sim_rate=23099 (inst/sec) elapsed = 0:0:04:06 / Tue Apr 16 16:49:39 2019
GPGPU-Sim uArch: cycles simulated: 466500  inst.: 5704480 (ipc=12.2) sim_rate=23095 (inst/sec) elapsed = 0:0:04:07 / Tue Apr 16 16:49:40 2019
GPGPU-Sim uArch: cycles simulated: 468000  inst.: 5717632 (ipc=12.2) sim_rate=23054 (inst/sec) elapsed = 0:0:04:08 / Tue Apr 16 16:49:41 2019
GPGPU-Sim PTX: 5800000 instructions simulated : ctaid=(6,0,0) tid=(159,0,0)
GPGPU-Sim uArch: cycles simulated: 470000  inst.: 5739584 (ipc=12.2) sim_rate=23050 (inst/sec) elapsed = 0:0:04:09 / Tue Apr 16 16:49:42 2019
GPGPU-Sim uArch: cycles simulated: 472000  inst.: 5761408 (ipc=12.2) sim_rate=23045 (inst/sec) elapsed = 0:0:04:10 / Tue Apr 16 16:49:43 2019
GPGPU-Sim uArch: cycles simulated: 474000  inst.: 5781792 (ipc=12.2) sim_rate=23035 (inst/sec) elapsed = 0:0:04:11 / Tue Apr 16 16:49:44 2019
GPGPU-Sim uArch: cycles simulated: 476000  inst.: 5801472 (ipc=12.2) sim_rate=23021 (inst/sec) elapsed = 0:0:04:12 / Tue Apr 16 16:49:45 2019
GPGPU-Sim uArch: cycles simulated: 477500  inst.: 5819680 (ipc=12.2) sim_rate=23002 (inst/sec) elapsed = 0:0:04:13 / Tue Apr 16 16:49:46 2019
GPGPU-Sim PTX: 5900000 instructions simulated : ctaid=(8,0,0) tid=(31,0,0)
GPGPU-Sim uArch: cycles simulated: 479500  inst.: 5841664 (ipc=12.2) sim_rate=22998 (inst/sec) elapsed = 0:0:04:14 / Tue Apr 16 16:49:47 2019
GPGPU-Sim uArch: cycles simulated: 481500  inst.: 5864800 (ipc=12.2) sim_rate=22999 (inst/sec) elapsed = 0:0:04:15 / Tue Apr 16 16:49:48 2019
GPGPU-Sim uArch: cycles simulated: 483500  inst.: 5884672 (ipc=12.2) sim_rate=22987 (inst/sec) elapsed = 0:0:04:16 / Tue Apr 16 16:49:49 2019
GPGPU-Sim uArch: cycles simulated: 485500  inst.: 5905536 (ipc=12.2) sim_rate=22978 (inst/sec) elapsed = 0:0:04:17 / Tue Apr 16 16:49:50 2019
GPGPU-Sim uArch: cycles simulated: 487000  inst.: 5920256 (ipc=12.2) sim_rate=22946 (inst/sec) elapsed = 0:0:04:18 / Tue Apr 16 16:49:51 2019
GPGPU-Sim PTX: 6000000 instructions simulated : ctaid=(8,0,0) tid=(223,0,0)
GPGPU-Sim uArch: cycles simulated: 489000  inst.: 5942016 (ipc=12.2) sim_rate=22942 (inst/sec) elapsed = 0:0:04:19 / Tue Apr 16 16:49:52 2019
GPGPU-Sim uArch: cycles simulated: 491000  inst.: 5963712 (ipc=12.1) sim_rate=22937 (inst/sec) elapsed = 0:0:04:20 / Tue Apr 16 16:49:53 2019
GPGPU-Sim uArch: cycles simulated: 493000  inst.: 5983520 (ipc=12.1) sim_rate=22925 (inst/sec) elapsed = 0:0:04:21 / Tue Apr 16 16:49:54 2019
GPGPU-Sim uArch: cycles simulated: 495000  inst.: 6004448 (ipc=12.1) sim_rate=22917 (inst/sec) elapsed = 0:0:04:22 / Tue Apr 16 16:49:55 2019
GPGPU-Sim PTX: 6100000 instructions simulated : ctaid=(8,0,0) tid=(95,0,0)
GPGPU-Sim uArch: cycles simulated: 497000  inst.: 6025472 (ipc=12.1) sim_rate=22910 (inst/sec) elapsed = 0:0:04:23 / Tue Apr 16 16:49:56 2019
GPGPU-Sim uArch: cycles simulated: 499000  inst.: 6046272 (ipc=12.1) sim_rate=22902 (inst/sec) elapsed = 0:0:04:24 / Tue Apr 16 16:49:57 2019
GPGPU-Sim uArch: cycles simulated: 501000  inst.: 6067680 (ipc=12.1) sim_rate=22896 (inst/sec) elapsed = 0:0:04:25 / Tue Apr 16 16:49:58 2019
GPGPU-Sim uArch: cycles simulated: 502500  inst.: 6079744 (ipc=12.1) sim_rate=22856 (inst/sec) elapsed = 0:0:04:26 / Tue Apr 16 16:49:59 2019
GPGPU-Sim uArch: cycles simulated: 504500  inst.: 6104608 (ipc=12.1) sim_rate=22863 (inst/sec) elapsed = 0:0:04:27 / Tue Apr 16 16:50:00 2019
GPGPU-Sim uArch: cycles simulated: 506500  inst.: 6118976 (ipc=12.1) sim_rate=22832 (inst/sec) elapsed = 0:0:04:28 / Tue Apr 16 16:50:01 2019
GPGPU-Sim PTX: 6200000 instructions simulated : ctaid=(5,0,0) tid=(31,0,0)
GPGPU-Sim uArch: cycles simulated: 508500  inst.: 6142336 (ipc=12.1) sim_rate=22833 (inst/sec) elapsed = 0:0:04:29 / Tue Apr 16 16:50:02 2019
GPGPU-Sim uArch: cycles simulated: 510500  inst.: 6162272 (ipc=12.1) sim_rate=22823 (inst/sec) elapsed = 0:0:04:30 / Tue Apr 16 16:50:03 2019
GPGPU-Sim uArch: cycles simulated: 512500  inst.: 6182528 (ipc=12.1) sim_rate=22813 (inst/sec) elapsed = 0:0:04:31 / Tue Apr 16 16:50:04 2019
GPGPU-Sim uArch: cycles simulated: 514500  inst.: 6203744 (ipc=12.1) sim_rate=22807 (inst/sec) elapsed = 0:0:04:32 / Tue Apr 16 16:50:05 2019
GPGPU-Sim PTX: 6300000 instructions simulated : ctaid=(0,0,0) tid=(31,0,0)
GPGPU-Sim uArch: cycles simulated: 516500  inst.: 6222080 (ipc=12.0) sim_rate=22791 (inst/sec) elapsed = 0:0:04:33 / Tue Apr 16 16:50:06 2019
GPGPU-Sim uArch: cycles simulated: 518500  inst.: 6244512 (ipc=12.0) sim_rate=22790 (inst/sec) elapsed = 0:0:04:34 / Tue Apr 16 16:50:07 2019
GPGPU-Sim uArch: cycles simulated: 520500  inst.: 6263392 (ipc=12.0) sim_rate=22775 (inst/sec) elapsed = 0:0:04:35 / Tue Apr 16 16:50:08 2019
GPGPU-Sim uArch: cycles simulated: 522000  inst.: 6280928 (ipc=12.0) sim_rate=22756 (inst/sec) elapsed = 0:0:04:36 / Tue Apr 16 16:50:09 2019
GPGPU-Sim uArch: cycles simulated: 524000  inst.: 6299072 (ipc=12.0) sim_rate=22740 (inst/sec) elapsed = 0:0:04:37 / Tue Apr 16 16:50:10 2019
GPGPU-Sim uArch: cycles simulated: 526000  inst.: 6318496 (ipc=12.0) sim_rate=22728 (inst/sec) elapsed = 0:0:04:38 / Tue Apr 16 16:50:11 2019
GPGPU-Sim PTX: 6400000 instructions simulated : ctaid=(1,0,0) tid=(31,0,0)
GPGPU-Sim uArch: cycles simulated: 528000  inst.: 6342016 (ipc=12.0) sim_rate=22731 (inst/sec) elapsed = 0:0:04:39 / Tue Apr 16 16:50:12 2019
GPGPU-Sim uArch: cycles simulated: 530000  inst.: 6361024 (ipc=12.0) sim_rate=22717 (inst/sec) elapsed = 0:0:04:40 / Tue Apr 16 16:50:13 2019
GPGPU-Sim uArch: cycles simulated: 532000  inst.: 6381152 (ipc=12.0) sim_rate=22708 (inst/sec) elapsed = 0:0:04:41 / Tue Apr 16 16:50:14 2019
GPGPU-Sim uArch: cycles simulated: 534000  inst.: 6400512 (ipc=12.0) sim_rate=22696 (inst/sec) elapsed = 0:0:04:42 / Tue Apr 16 16:50:15 2019
GPGPU-Sim uArch: cycles simulated: 536000  inst.: 6420000 (ipc=12.0) sim_rate=22685 (inst/sec) elapsed = 0:0:04:43 / Tue Apr 16 16:50:16 2019
GPGPU-Sim PTX: 6500000 instructions simulated : ctaid=(1,0,0) tid=(31,0,0)
GPGPU-Sim uArch: cycles simulated: 538000  inst.: 6441280 (ipc=12.0) sim_rate=22680 (inst/sec) elapsed = 0:0:04:44 / Tue Apr 16 16:50:17 2019
GPGPU-Sim uArch: cycles simulated: 540000  inst.: 6460736 (ipc=12.0) sim_rate=22669 (inst/sec) elapsed = 0:0:04:45 / Tue Apr 16 16:50:18 2019
GPGPU-Sim uArch: cycles simulated: 542000  inst.: 6482496 (ipc=12.0) sim_rate=22666 (inst/sec) elapsed = 0:0:04:46 / Tue Apr 16 16:50:19 2019
GPGPU-Sim uArch: cycles simulated: 543500  inst.: 6498912 (ipc=12.0) sim_rate=22644 (inst/sec) elapsed = 0:0:04:47 / Tue Apr 16 16:50:20 2019
GPGPU-Sim uArch: cycles simulated: 545500  inst.: 6517088 (ipc=11.9) sim_rate=22628 (inst/sec) elapsed = 0:0:04:48 / Tue Apr 16 16:50:21 2019
GPGPU-Sim PTX: 6600000 instructions simulated : ctaid=(0,1,0) tid=(159,0,0)
GPGPU-Sim uArch: cycles simulated: 547500  inst.: 6539200 (ipc=11.9) sim_rate=22626 (inst/sec) elapsed = 0:0:04:49 / Tue Apr 16 16:50:22 2019
GPGPU-Sim uArch: cycles simulated: 549500  inst.: 6557408 (ipc=11.9) sim_rate=22611 (inst/sec) elapsed = 0:0:04:50 / Tue Apr 16 16:50:23 2019
GPGPU-Sim uArch: cycles simulated: 551500  inst.: 6578080 (ipc=11.9) sim_rate=22605 (inst/sec) elapsed = 0:0:04:51 / Tue Apr 16 16:50:24 2019
GPGPU-Sim uArch: cycles simulated: 553500  inst.: 6598432 (ipc=11.9) sim_rate=22597 (inst/sec) elapsed = 0:0:04:52 / Tue Apr 16 16:50:25 2019
GPGPU-Sim uArch: cycles simulated: 555500  inst.: 6617568 (ipc=11.9) sim_rate=22585 (inst/sec) elapsed = 0:0:04:53 / Tue Apr 16 16:50:26 2019
GPGPU-Sim PTX: 6700000 instructions simulated : ctaid=(4,0,0) tid=(159,0,0)
GPGPU-Sim uArch: cycles simulated: 557500  inst.: 6637216 (ipc=11.9) sim_rate=22575 (inst/sec) elapsed = 0:0:04:54 / Tue Apr 16 16:50:27 2019
GPGPU-Sim uArch: cycles simulated: 559000  inst.: 6654048 (ipc=11.9) sim_rate=22556 (inst/sec) elapsed = 0:0:04:55 / Tue Apr 16 16:50:28 2019
GPGPU-Sim uArch: cycles simulated: 561000  inst.: 6674176 (ipc=11.9) sim_rate=22547 (inst/sec) elapsed = 0:0:04:56 / Tue Apr 16 16:50:29 2019
GPGPU-Sim uArch: cycles simulated: 563000  inst.: 6692864 (ipc=11.9) sim_rate=22534 (inst/sec) elapsed = 0:0:04:57 / Tue Apr 16 16:50:30 2019
GPGPU-Sim uArch: cycles simulated: 565000  inst.: 6712288 (ipc=11.9) sim_rate=22524 (inst/sec) elapsed = 0:0:04:58 / Tue Apr 16 16:50:31 2019
GPGPU-Sim PTX: 6800000 instructions simulated : ctaid=(3,0,0) tid=(95,0,0)
GPGPU-Sim uArch: cycles simulated: 567000  inst.: 6734336 (ipc=11.9) sim_rate=22522 (inst/sec) elapsed = 0:0:04:59 / Tue Apr 16 16:50:32 2019
GPGPU-Sim uArch: cycles simulated: 569000  inst.: 6751552 (ipc=11.9) sim_rate=22505 (inst/sec) elapsed = 0:0:05:00 / Tue Apr 16 16:50:33 2019
GPGPU-Sim uArch: cycles simulated: 571000  inst.: 6772576 (ipc=11.9) sim_rate=22500 (inst/sec) elapsed = 0:0:05:01 / Tue Apr 16 16:50:34 2019
GPGPU-Sim uArch: cycles simulated: 573000  inst.: 6793536 (ipc=11.9) sim_rate=22495 (inst/sec) elapsed = 0:0:05:02 / Tue Apr 16 16:50:35 2019
GPGPU-Sim uArch: cycles simulated: 575000  inst.: 6815648 (ipc=11.9) sim_rate=22493 (inst/sec) elapsed = 0:0:05:03 / Tue Apr 16 16:50:36 2019
GPGPU-Sim PTX: 6900000 instructions simulated : ctaid=(0,1,0) tid=(95,0,0)
GPGPU-Sim uArch: cycles simulated: 577000  inst.: 6835424 (ipc=11.8) sim_rate=22484 (inst/sec) elapsed = 0:0:05:04 / Tue Apr 16 16:50:37 2019
GPGPU-Sim uArch: cycles simulated: 579000  inst.: 6855424 (ipc=11.8) sim_rate=22476 (inst/sec) elapsed = 0:0:05:05 / Tue Apr 16 16:50:38 2019
GPGPU-Sim uArch: cycles simulated: 581000  inst.: 6874944 (ipc=11.8) sim_rate=22467 (inst/sec) elapsed = 0:0:05:06 / Tue Apr 16 16:50:39 2019
GPGPU-Sim uArch: cycles simulated: 583000  inst.: 6897888 (ipc=11.8) sim_rate=22468 (inst/sec) elapsed = 0:0:05:07 / Tue Apr 16 16:50:40 2019
GPGPU-Sim uArch: cycles simulated: 585000  inst.: 6917952 (ipc=11.8) sim_rate=22460 (inst/sec) elapsed = 0:0:05:08 / Tue Apr 16 16:50:41 2019
GPGPU-Sim PTX: 7000000 instructions simulated : ctaid=(3,1,0) tid=(223,0,0)
GPGPU-Sim uArch: cycles simulated: 587000  inst.: 6936544 (ipc=11.8) sim_rate=22448 (inst/sec) elapsed = 0:0:05:09 / Tue Apr 16 16:50:42 2019
GPGPU-Sim uArch: cycles simulated: 588500  inst.: 6955552 (ipc=11.8) sim_rate=22437 (inst/sec) elapsed = 0:0:05:10 / Tue Apr 16 16:50:43 2019
GPGPU-Sim uArch: cycles simulated: 590500  inst.: 6979680 (ipc=11.8) sim_rate=22442 (inst/sec) elapsed = 0:0:05:11 / Tue Apr 16 16:50:44 2019
GPGPU-Sim uArch: cycles simulated: 592500  inst.: 6997376 (ipc=11.8) sim_rate=22427 (inst/sec) elapsed = 0:0:05:12 / Tue Apr 16 16:50:45 2019
GPGPU-Sim uArch: cycles simulated: 594500  inst.: 7020640 (ipc=11.8) sim_rate=22430 (inst/sec) elapsed = 0:0:05:13 / Tue Apr 16 16:50:46 2019
GPGPU-Sim PTX: 7100000 instructions simulated : ctaid=(10,0,0) tid=(31,0,0)
GPGPU-Sim uArch: cycles simulated: 596500  inst.: 7040128 (ipc=11.8) sim_rate=22420 (inst/sec) elapsed = 0:0:05:14 / Tue Apr 16 16:50:47 2019
GPGPU-Sim uArch: cycles simulated: 598500  inst.: 7060384 (ipc=11.8) sim_rate=22413 (inst/sec) elapsed = 0:0:05:15 / Tue Apr 16 16:50:48 2019
GPGPU-Sim uArch: cycles simulated: 600500  inst.: 7081120 (ipc=11.8) sim_rate=22408 (inst/sec) elapsed = 0:0:05:16 / Tue Apr 16 16:50:49 2019
GPGPU-Sim uArch: cycles simulated: 602500  inst.: 7101952 (ipc=11.8) sim_rate=22403 (inst/sec) elapsed = 0:0:05:17 / Tue Apr 16 16:50:50 2019
[...]
dram[5]:  1.162869  1.160336  1.157025  1.161933  1.166667  1.165877  1.160665  1.161796  1.159640  1.161550  1.164713  1.161297  1.161933  1.165626  1.158397  1.167605 
average row locality = 1746301/1507049 = 1.158755
number of total memory accesses made:
dram[0]:         0         0         0         0         0         0         0         0         0         0         0         0         0         0         0         0 
dram[1]:         0         0         0         0         0         0         0         0         0         0         0         0         0         0         0         0 
dram[2]:         0         0         0         0         0         0         0         0         0         0         0         0         0         0         0         0 
dram[3]:         0         0         0         0         0         0         0         0         0         0         0         0         0         0         0         0 
dram[4]:         0         0         0         0         0         0         0         0         0         0         0         0         0         0         0         0 
dram[5]:         0         0         0         0         0         0         0         0         0         0         0         0         0         0         0         0 
total accesses: 0
min_bank_accesses = 0!
min_chip_accesses = 0!
number of total read accesses:
dram[0]:     17675     17740     18330     18465     17730     17850     18638     18673     17971     18110     18218     18288     17618     17632     17984     18083 
dram[1]:     17989     17984     18528     18577     18068     18078     18782     18989     18292     18263     18339     18488     17954     17972     18184     18271 
dram[2]:     17767     17831     18371     18254     17906     17968     18787     18727     18220     18108     18328     18233     17706     17739     18053     18132 
dram[3]:     17621     17848     18087     18170     17797     17925     18447     18626     17897     18196     18071     18015     17459     17774     17752     17879 
dram[4]:     18109     17982     18582     18582     18182     18254     18975     19066     18524     18404     18515     18571     18003     17973     18205     18394 
dram[5]:     17900     17775     18561     18082     18039     17958     18985     18447     18291     18313     18484     17985     17775     17901     18263     17972 
total reads: 1744509
bank skew: 19066/17459 = 1.09
chip skew: 294321/287564 = 1.02
number of total write accesses:
dram[0]:        64        64         0         0         0         0         0         0         0         0         0         0        20        20        64        64 
dram[1]:        64        64         0         0         0         0         0         0         0         0         0         0        20        20        64        64 
dram[2]:        64        64         0         0         0         0         0         0         0         0         0         0        20        24        64        64 
dram[3]:        64        64         0         0         0         0         0         0         0         0         0         0        20        24        64        64 
dram[4]:        64        64         0         0         0         0         0         0         0         0         0         0        20        24        64        64 
dram[5]:        64        64         0         0         0         0         0         0         0         0         0         0        20        24        64        64 
total reads: 1792
min_bank_accesses = 0!
chip skew: 300/296 = 1.01
average mf latency per bank:
dram[0]:       4299      4256      5183      5200      4342      4276      4199      4152      4316      4258      4203      4150      4317      4282      4233      4177
dram[1]:       4226      4227      5177      5205      4268      4247      4160      4118      4239      4254      4174      4131      4238      4235      4186      4163
dram[2]:       4263      4262      5225      5306      4285      4288      4142      4176      4247      4277      4156      4199      4285      4292      4206      4202
dram[3]:       4325      4259      5345      5315      4337      4298      4247      4194      4352      4250      4231      4242      4376      4276      4302      4256
dram[4]:       4204      4212      5199      4945      4243      4206      4127      4081      4192      4192      4135      4101      4237      4222      4190      4126
dram[5]:       4232      4211      5189      4153      4254      4220      4100      4167      4225      4170      4117      4175      4266      4189      4152      4165
maximum mf latency per bank:
dram[0]:        437       440       443       457       438       431       429       442       434       467       420       430       439       473       425       458
dram[1]:        442       429       447       415       424       429       417       433       437       431       436       434       434       438       427       447
dram[2]:        430       447       430       435       435       429       423       449       434       456       438       431       417       462       431       435
dram[3]:        417       432       434       425       431       418       435       425       430       432       429       433       445       427       425       444
dram[4]:        447       427       441       453       450       432       423       442       438       463       440       435       440       439       454       442
dram[5]:        425       417       423       441       428       426       430       433       422       423       426       428       422       434       435       437

Number of Memory Banks Accessed per Memory Operation per Warp (from 0):
0	0	0	0	0	0	0	0	0	0	0	0	0	0	0	0	0	0	0	0	0	0	0	0	0	0	0	0	0	0	0	0	0	0	0	0	0	0	0	0	0	0	0	0	0	0	0	0	0	0	0	0	0	0	0	0	0	0	0	0	0	0	0	0	0	0	0	0	0	0	0	0	0	0	0	0	0	0	0	0	0	0	0	0	0	0	0	0	0	0	0	0	0	0	0	0	
Average # of Memory Banks Accessed per Memory Operation per Warp=-nan

position of mrq chosen
0	0	0	0	0	0	0	0	0	0	0	0	0	0	0	0	

average position of mrq chosen = -nan
Memory Partition 0: 
Cache L2_bank_000:
MSHR contents

Cache L2_bank_001:
MSHR contents

In Dram Latency Queue (total = 0): 
DRAM[0]: 16 bks, busW=4 BL=8 CL=12, tRRD=2 tCCD=6, tRCD=12 tRAS=28 tRP=12 tRC=40
n_cmd=63791714 n_nop=62714512 n_act=249308 n_pre=249292 n_req=289301 n_rd=578010 n_write=592 bw_util=0.01814
n_activity=11595516 dram_eff=0.0998
bk0: 35350a 63333281i bk1: 35480a 63333895i bk2: 36660a 63319756i bk3: 36930a 63317363i bk4: 35460a 63333808i bk5: 35700a 63335852i bk6: 37276a 63311287i bk7: 37346a 63312087i bk8: 35942a 63324176i bk9: 36220a 63324108i bk10: 36436a 63319169i bk11: 36576a 63318926i bk12: 35236a 63333778i bk13: 35264a 63338864i bk14: 35968a 63325892i bk15: 36166a 63324398i 
dram_util_bins: 0 0 0 0 0 0 0 0 0 0
dram_eff_bins: 0 0 0 0 0 0 0 0 0 0
mrqq: max=11 avg=0.000823555
Memory Partition 1: 
Cache L2_bank_002:
MSHR contents

Cache L2_bank_003:
MSHR contents

In Dram Latency Queue (total = 0): 
DRAM[1]: 16 bks, busW=4 BL=8 CL=12, tRRD=2 tCCD=6, tRCD=12 tRAS=28 tRP=12 tRC=40
n_cmd=63791714 n_nop=62699742 n_act=252940 n_pre=252924 n_req=293054 n_rd=585516 n_write=592 bw_util=0.01838
n_activity=11683168 dram_eff=0.1003
bk0: 35978a 63323928i bk1: 35968a 63327881i bk2: 37056a 63314227i bk3: 37154a 63311986i bk4: 36136a 63325627i bk5: 36156a 63327693i bk6: 37564a 63305213i bk7: 37978a 63302279i bk8: 36584a 63315621i bk9: 36526a 63319189i bk10: 36678a 63317829i bk11: 36976a 63315288i bk12: 35908a 63327053i bk13: 35944a 63326428i bk14: 36368a 63321447i bk15: 36542a 63321236i 
dram_util_bins: 0 0 0 0 0 0 0 0 0 0
dram_eff_bins: 0 0 0 0 0 0 0 0 0 0
mrqq: max=5 avg=0.000776245
Memory Partition 2: 
Cache L2_bank_004:
MSHR contents

Cache L2_bank_005:
MSHR contents

In Dram Latency Queue (total = 0): 
DRAM[2]: 16 bks, busW=4 BL=8 CL=12, tRRD=2 tCCD=6, tRCD=12 tRAS=28 tRP=12 tRC=40
n_cmd=63791714 n_nop=62708262 n_act=251304 n_pre=251288 n_req=290430 n_rd=580260 n_write=600 bw_util=0.01821
n_activity=11617031 dram_eff=0.1
bk0: 35534a 63330621i bk1: 35662a 63330975i bk2: 36742a 63314721i bk3: 36508a 63318994i bk4: 35812a 63328485i bk5: 35936a 63330805i bk6: 37574a 63306896i bk7: 37454a 63309215i bk8: 36440a 63317010i bk9: 36216a 63320443i bk10: 36656a 63313665i bk11: 36466a 63319295i bk12: 35412a 63330454i bk13: 35478a 63333986i bk14: 36106a 63322314i bk15: 36264a 63323140i 
dram_util_bins: 0 0 0 0 0 0 0 0 0 0
dram_eff_bins: 0 0 0 0 0 0 0 0 0 0
mrqq: max=7 avg=0.000882873
Memory Partition 3: 
Cache L2_bank_006:
MSHR contents

Cache L2_bank_007:
MSHR contents

In Dram Latency Queue (total = 0): 
DRAM[3]: 16 bks, busW=4 BL=8 CL=12, tRRD=2 tCCD=6, tRCD=12 tRAS=28 tRP=12 tRC=40
n_cmd=63791714 n_nop=62718084 n_act=248959 n_pre=248943 n_req=287864 n_rd=575128 n_write=600 bw_util=0.01805
n_activity=11529029 dram_eff=0.09987
bk0: 35242a 63334970i bk1: 35696a 63332649i bk2: 36174a 63323899i bk3: 36340a 63322752i bk4: 35594a 63331421i bk5: 35850a 63331666i bk6: 36894a 63313715i bk7: 37252a 63312391i bk8: 35794a 63325283i bk9: 36392a 63320000i bk10: 36142a 63323517i bk11: 36030a 63324116i bk12: 34918a 63338824i bk13: 35548a 63332746i bk14: 35504a 63329424i bk15: 35758a 63328731i 
dram_util_bins: 0 0 0 0 0 0 0 0 0 0
dram_eff_bins: 0 0 0 0 0 0 0 0 0 0
mrqq: max=4 avg=0.0007643
Memory Partition 4: 
Cache L2_bank_008:
MSHR contents

Cache L2_bank_009:
MSHR contents

In Dram Latency Queue (total = 0): 
DRAM[4]: 16 bks, busW=4 BL=8 CL=12, tRRD=2 tCCD=6, tRCD=12 tRAS=28 tRP=12 tRC=40
n_cmd=63791714 n_nop=62694176 n_act=254156 n_pre=254140 n_req=294621 n_rd=588642 n_write=600 bw_util=0.01847
n_activity=11729243 dram_eff=0.1005
bk0: 36218a 63322585i bk1: 35964a 63328289i bk2: 37164a 63311774i bk3: 37164a 63312259i bk4: 36364a 63321195i bk5: 36508a 63324432i bk6: 37950a 63301747i bk7: 38132a 63301712i bk8: 37048a 63310458i bk9: 36808a 63315370i bk10: 37030a 63310444i bk11: 37142a 63309820i bk12: 36006a 63324781i bk13: 35946a 63328735i bk14: 36410a 63319946i bk15: 36788a 63316997i 
dram_util_bins: 0 0 0 0 0 0 0 0 0 0
dram_eff_bins: 0 0 0 0 0 0 0 0 0 0
mrqq: max=11 avg=0.000853747
Memory Partition 5: 
Cache L2_bank_010:
MSHR contents

Cache L2_bank_011:
MSHR contents
MSHR: tag=0x81e4bf80, atomic=0 1 entries : 0x7f30cd3ede90 :  mf: uid=688773378, sid09:w15, part=5, addr=0x81e4bf80, load , size=128, unknown  status = IN_PARTITION_DRAM (48327055), 

In Dram Latency Queue (total = 0): 
DRAM[5]: 16 bks, busW=4 BL=8 CL=12, tRRD=2 tCCD=6, tRCD=12 tRAS=28 tRP=12 tRC=40
n_cmd=63791714 n_nop=62708902 n_act=250383 n_pre=250367 n_req=291031 n_rd=581462 n_write=600 bw_util=0.01825
n_activity=11622621 dram_eff=0.1002
bk0: 35800a 63328330i bk1: 35550a 63333150i bk2: 37122a 63312171i bk3: 36164a 63327561i bk4: 36078a 63327909i bk5: 35916a 63332769i bk6: 37970a 63302754i bk7: 36894a 63317595i bk8: 36582a 63318919i bk9: 36626a 63321449i bk10: 36968a 63315509i bk11: 35970a 63329621i bk12: 35550a 63332018i bk13: 35802a 63332595i bk14: 36526a 63317424i bk15: 35944a 63329421i 
dram_util_bins: 0 0 0 0 0 0 0 0 0 0
dram_eff_bins: 0 0 0 0 0 0 0 0 0 0
mrqq: max=4 avg=0.000783895

========= L2 cache stats =========
L2_cache_bank[0]: Access = 3366050, Miss = 144164, Miss_rate = 0.043, Pending_hits = 6, Reservation_fails = 95
L2_cache_bank[1]: Access = 3373698, Miss = 144841, Miss_rate = 0.043, Pending_hits = 2, Reservation_fails = 0
L2_cache_bank[2]: Access = 3371003, Miss = 146136, Miss_rate = 0.043, Pending_hits = 8, Reservation_fails = 220
L2_cache_bank[3]: Access = 3376054, Miss = 146622, Miss_rate = 0.043, Pending_hits = 1, Reservation_fails = 0
L2_cache_bank[4]: Access = 3371862, Miss = 145138, Miss_rate = 0.043, Pending_hits = 5, Reservation_fails = 99
L2_cache_bank[5]: Access = 3376928, Miss = 144992, Miss_rate = 0.043, Pending_hits = 4, Reservation_fails = 0
L2_cache_bank[6]: Access = 3373924, Miss = 143131, Miss_rate = 0.042, Pending_hits = 3, Reservation_fails = 0
L2_cache_bank[7]: Access = 3373632, Miss = 144433, Miss_rate = 0.043, Pending_hits = 1, Reservation_fails = 0
L2_cache_bank[8]: Access = 3375267, Miss = 147095, Miss_rate = 0.044, Pending_hits = 2, Reservation_fails = 0
L2_cache_bank[9]: Access = 3350045, Miss = 147226, Miss_rate = 0.044, Pending_hits = 2, Reservation_fails = 0
L2_cache_bank[10]: Access = 3373798, Miss = 146298, Miss_rate = 0.043, Pending_hits = 1, Reservation_fails = 0
L2_cache_bank[11]: Access = 3264288, Miss = 144433, Miss_rate = 0.044, Pending_hits = 0, Reservation_fails = 0
L2_total_cache_accesses = 40346549
L2_total_cache_misses = 1744509
L2_total_cache_miss_rate = 0.0432
L2_total_cache_pending_hits = 35
L2_total_cache_reservation_fails = 414
L2_total_cache_breakdown:
	L2_cache_stats_breakdown[GLOBAL_ACC_R][HIT] = 38601934
	L2_cache_stats_breakdown[GLOBAL_ACC_R][HIT_RESERVED] = 23
	L2_cache_stats_breakdown[GLOBAL_ACC_R][MISS] = 1742710
	L2_cache_stats_breakdown[CONST_ACC_R][HIT] = 11
	L2_cache_stats_breakdown[CONST_ACC_R][HIT_RESERVED] = 3
	L2_cache_stats_breakdown[CONST_ACC_R][MISS] = 1
	L2_cache_stats_breakdown[CONST_ACC_R][RESERVATION_FAIL] = 95
	L2_cache_stats_breakdown[GLOBAL_ACC_W][MISS] = 1792
	L2_cache_stats_breakdown[INST_ACC_R][HIT] = 60
	L2_cache_stats_breakdown[INST_ACC_R][HIT_RESERVED] = 9
	L2_cache_stats_breakdown[INST_ACC_R][MISS] = 6
	L2_cache_stats_breakdown[INST_ACC_R][RESERVATION_FAIL] = 319
L2_cache_data_port_util = 0.266
L2_cache_fill_port_util = 0.012

icnt_total_pkts_mem_to_simt=201725547
icnt_total_pkts_simt_to_mem=40353717
LD_mem_lat_dist  0 0 0 0 0 0 0 0 0 0 0 0 0 0 0 0 0 0 0 0 0 0 0 0 0 0 0
ST_mem_lat_dist  0 0 0 0 0 0 0 0 0 0 0 0 0 0 0 0 0 0 0 0 0 0 0 0 0 0 0
----------------------------Interconnect-DETAILS--------------------------------
Class 0:
Packet latency average = 20.44
	minimum = 6
	maximum = 145
Network latency average = 17.1585
	minimum = 6
	maximum = 129
Slowest packet = 40442112
Flit latency average = 16.6319
	minimum = 6
	maximum = 125
Slowest flit = 237153753
Fragmentation average = 0
	minimum = 0
	maximum = 0
Injected packet rate average = 0.06186
	minimum = 0.0521649 (at node 6)
	maximum = 0.0699096 (at node 20)
Accepted packet rate average = 0.06186
	minimum = 0.0521649 (at node 6)
	maximum = 0.0699096 (at node 20)
Injected flit rate average = 0.18558
	minimum = 0.0521742 (at node 6)
	maximum = 0.349535 (at node 20)
Accepted flit rate average= 0.18558
	minimum = 0.0675767 (at node 26)
	maximum = 0.298389 (at node 0)
Injected packet length average = 3
Accepted packet length average = 3
Total in-flight flits = 0 (0 measured)
====== Overall Traffic Statistics ======
====== Traffic class 0 ======
Packet latency average = 20.4404 (2 samples)
	minimum = 6 (2 samples)
	maximum = 143.5 (2 samples)
Network latency average = 17.1593 (2 samples)
	minimum = 6 (2 samples)
	maximum = 128.5 (2 samples)
Flit latency average = 16.633 (2 samples)
	minimum = 6 (2 samples)
	maximum = 124.5 (2 samples)
Fragmentation average = 0 (2 samples)
	minimum = 0 (2 samples)
	maximum = 0 (2 samples)
Injected packet rate average = 0.0618418 (2 samples)
	minimum = 0.0521593 (2 samples)
	maximum = 0.0698766 (2 samples)
Accepted packet rate average = 0.0618418 (2 samples)
	minimum = 0.0521593 (2 samples)
	maximum = 0.0698766 (2 samples)
Injected flit rate average = 0.185525 (2 samples)
	minimum = 0.0521686 (2 samples)
	maximum = 0.34937 (2 samples)
Accepted flit rate average = 0.185525 (2 samples)
	minimum = 0.0675583 (2 samples)
	maximum = 0.298236 (2 samples)
Injected packet size average = 3 (2 samples)
Accepted packet size average = 3 (2 samples)
Hops average = 1 (2 samples)
----------------------------END-of-Interconnect-DETAILS-------------------------


gpgpu_simulation_time = 0 days, 5 hrs, 44 min, 13 sec (20653 sec)
gpgpu_simulation_rate = 23332 (inst/sec)
gpgpu_simulation_rate = 2339 (cycle/sec)
GPGPU-Sim: synchronize waiting for inactive GPU simulation
GPGPU-Sim API: Stream Manager State
GPGPU-Sim: detected inactive GPU simulation thread
iterated 2 times

================= Centroid Coordinates =================
0: 1.23 613.61 527.61 0.00 0.00 0.01 0.00 0.00 0.00 0.00 0.03 0.01 0.00 0.00 0.00 8.15 11.06 0.00 0.00 0.00 0.00 0.99 0.01 0.22 139.44 193.37 0.83 0.02 0.06 0.01 0.00 0.00 0.00 0.00 1.00 1.23 613.61 527.61 0.00 0.00 0.01 0.00 0.00 0.00 0.00 0.03 0.01 0.00 0.00 0.00 8.15 11.06 0.00 0.00 0.00 0.00 0.99 0.01 0.22 139.44 193.37 0.83 0.02 0.06 0.01 0.00 0.00 0.00 0.00 1.23 613.61 527.61 0.00 0.00 0.01 0.00 0.00 0.00 0.00 0.03 0.01 0.00 0.00 0.00 8.15 11.06 0.00 0.00 0.00 0.00 0.99 0.01 0.22 139.44 193.37 0.83 0.02 0.06 0.01 0.00 0.00 0.00 0.00 1.00 1.23 613.61 527.61 0.00 0.00 0.01 0.00 0.00 0.00 0.00 0.03 0.01 0.00 0.00 0.00 8.15 11.06 0.00 0.00 0.00 0.00 0.99 0.01 0.22 139.44 193.37 0.83 0.02 0.06 0.01 0.00 0.00 0.00 0.00

1: 1.45 15177.44 214.67 0.00 0.00 0.01 0.00 0.00 0.00 0.00 0.00 0.02 0.01 0.02 0.00 4.59 5.07 0.00 0.01 0.00 0.00 0.98 0.03 0.25 129.85 98.10 0.52 0.05 0.20 0.01 0.00 0.00 0.00 0.00 1.00 1.45 15177.44 214.67 0.00 0.00 0.01 0.00 0.00 0.00 0.00 0.00 0.02 0.01 0.02 0.00 4.59 5.07 0.00 0.01 0.00 0.00 0.98 0.03 0.25 129.85 98.10 0.52 0.05 0.20 0.01 0.00 0.00 0.00 0.00 1.45 15177.44 214.67 0.00 0.00 0.01 0.00 0.00 0.00 0.00 0.00 0.02 0.01 0.02 0.00 4.59 5.07 0.00 0.01 0.00 0.00 0.98 0.03 0.25 129.85 98.10 0.52 0.05 0.20 0.01 0.00 0.00 0.00 0.00 1.00 1.45 15177.44 214.67 0.00 0.00 0.01 0.00 0.00 0.00 0.00 0.00 0.02 0.01 0.02 0.00 4.59 5.07 0.00 0.01 0.00 0.00 0.98 0.03 0.25 129.85 98.10 0.52 0.05 0.20 0.01 0.00 0.00 0.00 0.00

2: 3.74 600.16 40.36 0.01 0.00 0.00 0.00 0.00 0.00 0.00 0.00 0.00 0.00 0.00 0.00 338.62 287.90 0.24 0.24 0.03 0.03 0.75 0.04 0.03 240.64 180.98 0.72 0.05 0.58 0.00 0.24 0.24 0.03 0.03 1.00 3.74 600.16 40.36 0.01 0.00 0.00 0.00 0.00 0.00 0.00 0.00 0.00 0.00 0.00 0.00 338.62 287.90 0.24 0.24 0.03 0.03 0.75 0.04 0.03 240.64 180.98 0.72 0.05 0.58 0.00 0.24 0.24 0.03 0.03 3.74 600.16 40.36 0.01 0.00 0.00 0.00 0.00 0.00 0.00 0.00 0.00 0.00 0.00 0.00 338.62 287.90 0.24 0.24 0.03 0.03 0.75 0.04 0.03 240.64 180.98 0.72 0.05 0.58 0.00 0.24 0.24 0.03 0.03 1.00 3.74 600.16 40.36 0.01 0.00 0.00 0.00 0.00 0.00 0.00 0.00 0.00 0.00 0.00 0.00 338.62 287.90 0.24 0.24 0.03 0.03 0.75 0.04 0.03 240.64 180.98 0.72 0.05 0.58 0.00 0.24 0.24 0.03 0.03

3: 21.48 303.12 20528.08 0.00 0.00 0.03 0.00 0.16 0.00 0.00 0.17 0.01 0.00 0.00 0.00 7.59 11.10 0.00 0.01 0.00 0.00 1.00 0.00 0.13 130.51 246.12 0.99 0.00 0.06 0.02 0.00 0.00 0.00 0.00 1.00 21.48 303.12 20528.08 0.00 0.00 0.03 0.00 0.16 0.00 0.00 0.17 0.01 0.00 0.00 0.00 7.59 11.10 0.00 0.01 0.00 0.00 1.00 0.00 0.13 130.51 246.12 0.99 0.00 0.06 0.02 0.00 0.00 0.00 0.00 21.48 303.12 20528.08 0.00 0.00 0.03 0.00 0.16 0.00 0.00 0.17 0.01 0.00 0.00 0.00 7.59 11.10 0.00 0.01 0.00 0.00 1.00 0.00 0.13 130.51 246.12 0.99 0.00 0.06 0.02 0.00 0.00 0.00 0.00 1.00 21.48 303.12 20528.08 0.00 0.00 0.03 0.00 0.16 0.00 0.00 0.17 0.01 0.00 0.00 0.00 7.59 11.10 0.00 0.01 0.00 0.00 1.00 0.00 0.13 130.51 246.12 0.99 0.00 0.06 0.02 0.00 0.00 0.00 0.00

4: 0.31 264.14 2561.85 0.00 0.00 0.06 0.00 0.00 0.00 0.00 0.00 0.00 0.00 0.01 0.00 9.81 13.92 0.00 0.00 0.00 0.00 1.00 0.00 0.10 132.64 245.89 0.99 0.00 0.05 0.02 0.00 0.00 0.00 0.00 1.00 0.31 264.14 2561.85 0.00 0.00 0.06 0.00 0.00 0.00 0.00 0.00 0.00 0.00 0.01 0.00 9.81 13.92 0.00 0.00 0.00 0.00 1.00 0.00 0.10 132.64 245.89 0.99 0.00 0.05 0.02 0.00 0.00 0.00 0.00 0.31 264.14 2561.85 0.00 0.00 0.06 0.00 0.00 0.00 0.00 0.00 0.00 0.00 0.01 0.00 9.81 13.92 0.00 0.00 0.00 0.00 1.00 0.00 0.10 132.64 245.89 0.99 0.00 0.05 0.02 0.00 0.00 0.00 0.00 1.00 0.31 264.14 2561.85 0.00 0.00 0.06 0.00 0.00 0.00 0.00 0.00 0.00 0.00 0.01 0.00 9.81 13.92 0.00 0.00 0.00 0.00 1.00 0.00 0.10 132.64 245.89 0.99 0.00 0.05 0.02 0.00 0.00 0.00 0.00

Number of Iteration: 1
Time for I/O: 0.00000sec
Time for Entire Clustering: 0.00000sec
Root Mean Squared Error: 55443.000
