

        *** GPGPU-Sim Simulator Version 3.2.2  [build 0] ***


GPGPU-Sim PTX: simulation mode 0 (can change with PTX_SIM_MODE_FUNC environment variable:
               1=functional simulation only, 0=detailed performance simulator)
GPGPU-Sim: Configuration options:

-network_mode                           1 # Interconnection network mode
-inter_config_file   config_fermi_islip.icnt # Interconnection network config file
-gpgpu_ptx_use_cuobjdump                    1 # Use cuobjdump to extract ptx and sass from binaries
-gpgpu_experimental_lib_support                    0 # Try to extract code from cuda libraries [Broken because of unknown cudaGetExportTable]
-gpgpu_ptx_convert_to_ptxplus                    0 # Convert SASS (native ISA) to ptxplus and run ptxplus
-gpgpu_ptx_force_max_capability                   20 # Force maximum compute capability
-gpgpu_ptx_inst_debug_to_file                    0 # Dump executed instructions' debug information to file
-gpgpu_ptx_inst_debug_file       inst_debug.txt # Executed instructions' debug output file
-gpgpu_ptx_inst_debug_thread_uid                    1 # Thread UID for executed instructions' debug output
-gpgpu_simd_model                       1 # 1 = post-dominator
-gpgpu_shader_core_pipeline              1536:32 # shader core pipeline config, i.e., {<nthread>:<warpsize>}
-gpgpu_tex_cache:l1  4:128:24,L:R:m:N:L,F:128:4,128:2 # per-shader L1 texture cache  (READ-ONLY) config  {<nsets>:<bsize>:<assoc>,<rep>:<wr>:<alloc>:<wr_alloc>,<mshr>:<N>:<merge>,<mq>:<rf>}
-gpgpu_const_cache:l1 64:64:2,L:R:f:N:L,A:2:32,4 # per-shader L1 constant memory cache  (READ-ONLY) config  {<nsets>:<bsize>:<assoc>,<rep>:<wr>:<alloc>:<wr_alloc>,<mshr>:<N>:<merge>,<mq>} 
-gpgpu_cache:il1     4:128:4,L:R:f:N:L,A:2:32,4 # shader L1 instruction cache config  {<nsets>:<bsize>:<assoc>,<rep>:<wr>:<alloc>:<wr_alloc>,<mshr>:<N>:<merge>,<mq>} 
-gpgpu_cache:dl1     32:128:1,L:L:m:N:H,A:32:8,8 # per-shader L1 data cache config  {<nsets>:<bsize>:<assoc>,<rep>:<wr>:<alloc>:<wr_alloc>,<mshr>:<N>:<merge>,<mq> | none}
-gpgpu_cache:dl1PrefL1                 none # per-shader L1 data cache config  {<nsets>:<bsize>:<assoc>,<rep>:<wr>:<alloc>:<wr_alloc>,<mshr>:<N>:<merge>,<mq> | none}
-gpgpu_cache:dl1PreShared                 none # per-shader L1 data cache config  {<nsets>:<bsize>:<assoc>,<rep>:<wr>:<alloc>:<wr_alloc>,<mshr>:<N>:<merge>,<mq> | none}
-gmem_skip_L1D                          0 # global memory access skip L1D cache (implements -Xptxas -dlcm=cg, default=no skip)
-gpgpu_perfect_mem                      0 # enable perfect memory mode (no cache miss)
-n_regfile_gating_group                    4 # group of lanes that should be read/written together)
-gpgpu_clock_gated_reg_file                    0 # enable clock gated reg file for power calculations
-gpgpu_clock_gated_lanes                    0 # enable clock gated lanes for power calculations
-gpgpu_shader_registers                32768 # Number of registers per shader core. Limits number of concurrent CTAs. (default 8192)
-gpgpu_shader_cta                       8 # Maximum number of concurrent CTAs in shader (default 8)
-gpgpu_num_cta_barriers                   16 # Maximum number of named barriers per CTA (default 16)
-gpgpu_n_clusters                      15 # number of processing clusters
-gpgpu_n_cores_per_cluster                    1 # number of simd cores per cluster
-gpgpu_n_cluster_ejection_buffer_size                    8 # number of packets in ejection buffer
-gpgpu_n_ldst_response_buffer_size                    2 # number of response packets in ld/st unit ejection buffer
-gpgpu_shmem_size                   16384 # Size of shared memory per shader core (default 16kB)
-gpgpu_shmem_size                   49152 # Size of shared memory per shader core (default 16kB)
-gpgpu_shmem_size_PrefL1                16384 # Size of shared memory per shader core (default 16kB)
-gpgpu_shmem_size_PrefShared                16384 # Size of shared memory per shader core (default 16kB)
-gpgpu_shmem_num_banks                   32 # Number of banks in the shared memory in each shader core (default 16)
-gpgpu_shmem_limited_broadcast                    0 # Limit shared memory to do one broadcast per cycle (default on)
-gpgpu_shmem_warp_parts                    1 # Number of portions a warp is divided into for shared memory bank conflict check 
-gpgpu_warpdistro_shader                   -1 # Specify which shader core to collect the warp size distribution from
-gpgpu_warp_issue_shader                    0 # Specify which shader core to collect the warp issue distribution from
-gpgpu_local_mem_map                    1 # Mapping from local memory space address to simulated GPU physical address space (default = enabled)
-gpgpu_num_reg_banks                   16 # Number of register banks (default = 8)
-gpgpu_reg_bank_use_warp_id                    0 # Use warp ID in mapping registers to banks (default = off)
-gpgpu_operand_collector_num_units_sp                    6 # number of collector units (default = 4)
-gpgpu_operand_collector_num_units_sfu                    8 # number of collector units (default = 4)
-gpgpu_operand_collector_num_units_mem                    2 # number of collector units (default = 2)
-gpgpu_operand_collector_num_units_gen                    0 # number of collector units (default = 0)
-gpgpu_operand_collector_num_in_ports_sp                    2 # number of collector unit in ports (default = 1)
-gpgpu_operand_collector_num_in_ports_sfu                    1 # number of collector unit in ports (default = 1)
-gpgpu_operand_collector_num_in_ports_mem                    1 # number of collector unit in ports (default = 1)
-gpgpu_operand_collector_num_in_ports_gen                    0 # number of collector unit in ports (default = 0)
-gpgpu_operand_collector_num_out_ports_sp                    2 # number of collector unit in ports (default = 1)
-gpgpu_operand_collector_num_out_ports_sfu                    1 # number of collector unit in ports (default = 1)
-gpgpu_operand_collector_num_out_ports_mem                    1 # number of collector unit in ports (default = 1)
-gpgpu_operand_collector_num_out_ports_gen                    0 # number of collector unit in ports (default = 0)
-gpgpu_coalesce_arch                   13 # Coalescing arch (default = 13, anything else is off for now)
-gpgpu_num_sched_per_core                    2 # Number of warp schedulers per core
-gpgpu_max_insn_issue_per_warp                    1 # Max number of instructions that can be issued per warp in one cycle by scheduler
-gpgpu_simt_core_sim_order                    1 # Select the simulation order of cores in a cluster (0=Fix, 1=Round-Robin)
-gpgpu_pipeline_widths        2,1,1,2,1,1,2 # Pipeline widths ID_OC_SP,ID_OC_SFU,ID_OC_MEM,OC_EX_SP,OC_EX_SFU,OC_EX_MEM,EX_WB
-gpgpu_num_sp_units                     2 # Number of SP units (default=1)
-gpgpu_num_sfu_units                    1 # Number of SF units (default=1)
-gpgpu_num_mem_units                    1 # Number if ldst units (default=1) WARNING: not hooked up to anything
-gpgpu_scheduler                      gto # Scheduler configuration: < lrr | gto | two_level_active > If two_level_active:<num_active_warps>:<inner_prioritization>:<outer_prioritization>For complete list of prioritization values see shader.h enum scheduler_prioritization_typeDefault: gto
-gpgpu_dram_scheduler                    1 # 0 = fifo, 1 = FR-FCFS (defaul)
-gpgpu_dram_partition_queues              8:8:8:8 # i2$:$2d:d2$:$2i
-l2_ideal                               0 # Use a ideal L2 cache that always hit
-gpgpu_cache:dl2     64:128:8,L:B:m:W:L,A:32:4,4:0,32 # unified banked L2 data cache config  {<nsets>:<bsize>:<assoc>,<rep>:<wr>:<alloc>:<wr_alloc>,<mshr>:<N>:<merge>,<mq>}
-gpgpu_cache:dl2_texture_only                    0 # L2 cache used for texture only
-gpgpu_n_mem                            6 # number of memory modules (e.g. memory controllers) in gpu
-gpgpu_n_sub_partition_per_mchannel                    2 # number of memory subpartition in each memory module
-gpgpu_n_mem_per_ctrlr                    2 # number of memory chips per memory controller
-gpgpu_memlatency_stat                   14 # track and display latency statistics 0x2 enables MC, 0x4 enables queue logs
-gpgpu_frfcfs_dram_sched_queue_size                   16 # 0 = unlimited (default); # entries per chip
-gpgpu_dram_return_queue_size                  116 # 0 = unlimited (default); # entries per chip
-gpgpu_dram_buswidth                    4 # default = 4 bytes (8 bytes per cycle at DDR)
-gpgpu_dram_burst_length                    8 # Burst length of each DRAM request (default = 4 data bus cycle)
-dram_data_command_freq_ratio                    4 # Frequency ratio between DRAM data bus and command bus (default = 2 times, i.e. DDR)
-gpgpu_dram_timing_opt nbk=16:CCD=2:RRD=6:RCD=12:RAS=28:RP=12:RC=40: CL=12:WL=4:CDLR=5:WR=12:nbkgrp=4:CCDL=3:RTPL=2 # DRAM timing parameters = {nbk:tCCD:tRRD:tRCD:tRAS:tRP:tRC:CL:WL:tCDLR:tWR:nbkgrp:tCCDL:tRTPL}
-rop_latency                          120 # ROP queue latency (default 85)
-dram_latency                         100 # DRAM latency (default 30)
-gpgpu_mem_addr_mapping dramid@8;00000000.00000000.00000000.00000000.0000RRRR.RRRRRRRR.BBBCCCCB.CCSSSSSS # mapping memory address to dram model {dramid@<start bit>;<memory address map>}
-gpgpu_mem_addr_test                    0 # run sweep test to check address mapping for aliased address
-gpgpu_mem_address_mask                    1 # 0 = old addressing mask, 1 = new addressing mask, 2 = new add. mask + flipped bank sel and chip sel bits
-gpuwattch_xml_file  gpuwattch_gtx480.xml # GPUWattch XML file
-power_simulation_enabled                    1 # Turn on power simulator (1=On, 0=Off)
-power_per_cycle_dump                    0 # Dump detailed power output each cycle
-power_trace_enabled                    0 # produce a file for the power trace (1=On, 0=Off)
-power_trace_zlevel                     6 # Compression level of the power trace output log (0=no comp, 9=highest)
-steady_power_levels_enabled                    0 # produce a file for the steady power levels (1=On, 0=Off)
-steady_state_definition                  8:4 # allowed deviation:number of samples
-gpgpu_max_cycle                        0 # terminates gpu simulation early (0 = no limit)
-gpgpu_max_insn                         0 # terminates gpu simulation early (0 = no limit)
-gpgpu_max_cta                          0 # terminates gpu simulation early (0 = no limit)
-gpgpu_runtime_stat                   500 # display runtime statistics such as dram utilization {<freq>:<flag>}
-liveness_message_freq                    1 # Minimum number of seconds between simulation liveness messages (0 = always print)
-gpgpu_flush_l1_cache                    0 # Flush L1 cache at the end of each kernel call
-gpgpu_flush_l2_cache                    0 # Flush L2 cache at the end of each kernel call
-gpgpu_deadlock_detect                    1 # Stop the simulation at deadlock (1=on (default), 0=off)
-gpgpu_ptx_instruction_classification                    0 # if enabled will classify ptx instruction types per kernel (Max 255 kernels now)
-gpgpu_ptx_sim_mode                     0 # Select between Performance (default) or Functional simulation (1)
-gpgpu_clock_domains 700.0:700.0:700.0:924.0 # Clock Domain Frequencies in MhZ {<Core Clock>:<ICNT Clock>:<L2 Clock>:<DRAM Clock>}
-gpgpu_max_concurrent_kernel                    8 # maximum kernels that can run concurrently on GPU
-gpgpu_cflog_interval                    0 # Interval between each snapshot in control flow logger
-visualizer_enabled                     0 # Turn on visualizer output (1=On, 0=Off)
-visualizer_outputfile                 NULL # Specifies the output log file for visualizer
-visualizer_zlevel                      6 # Compression level of the visualizer output log (0=no comp, 9=highest)
-trace_enabled                          0 # Turn on traces
-trace_components                    none # comma seperated list of traces to enable. Complete list found in trace_streams.tup. Default none
-trace_sampling_core                    0 # The core which is printed using CORE_DPRINTF. Default 0
-trace_sampling_memory_partition                   -1 # The memory partition which is printed using MEMPART_DPRINTF. Default -1 (i.e. all)
-enable_ptx_file_line_stats                    1 # Turn on PTX source line statistic profiling. (1 = On)
-ptx_line_stats_filename gpgpu_inst_stats.txt # Output file for PTX source line statistics.
-save_embedded_ptx                      0 # saves ptx files embedded in binary as <n>.ptx
-keep                                   0 # keep intermediate files created by GPGPU-Sim when interfacing with external programs
-gpgpu_ptx_save_converted_ptxplus                    0 # Saved converted ptxplus to a file
-ptx_opcode_latency_int         4,13,4,5,145 # Opcode latencies for integers <ADD,MAX,MUL,MAD,DIV>Default 1,1,19,25,145
-ptx_opcode_latency_fp          4,13,4,5,39 # Opcode latencies for single precision floating points <ADD,MAX,MUL,MAD,DIV>Default 1,1,1,1,30
-ptx_opcode_latency_dp         8,19,8,8,330 # Opcode latencies for double precision floating points <ADD,MAX,MUL,MAD,DIV>Default 8,8,8,8,335
-ptx_opcode_initiation_int            1,2,2,1,8 # Opcode initiation intervals for integers <ADD,MAX,MUL,MAD,DIV>Default 1,1,4,4,32
-ptx_opcode_initiation_fp            1,2,1,1,4 # Opcode initiation intervals for single precision floating points <ADD,MAX,MUL,MAD,DIV>Default 1,1,1,1,5
-ptx_opcode_initiation_dp         8,16,8,8,130 # Opcode initiation intervals for double precision floating points <ADD,MAX,MUL,MAD,DIV>Default 8,8,8,8,130
DRAM Timing Options:
nbk                                    16 # number of banks
CCD                                     2 # column to column delay
RRD                                     6 # minimal delay between activation of rows in different banks
RCD                                    12 # row to column delay
RAS                                    28 # time needed to activate row
RP                                     12 # time needed to precharge (deactivate) row
RC                                     40 # row cycle time
CDLR                                    5 # switching from write to read (changes tWTR)
WR                                     12 # last data-in to row precharge
CL                                     12 # CAS latency
WL                                      4 # Write latency
nbkgrp                                  4 # number of bank groups
CCDL                                    3 # column to column delay between accesses to different bank groups
RTPL                                    2 # read to precharge delay between accesses to different bank groups
Total number of memory sub partition = 12
addr_dec_mask[CHIP]  = 0000000000000000 	high:64 low:0
addr_dec_mask[BK]    = 000000000000e100 	high:16 low:8
addr_dec_mask[ROW]   = 000000000fff0000 	high:28 low:16
addr_dec_mask[COL]   = 0000000000001eff 	high:13 low:0
addr_dec_mask[BURST] = 000000000000003f 	high:6 low:0
sub_partition_id_mask = 0000000000000100
GPGPU-Sim uArch: clock freqs: 700000000.000000:700000000.000000:700000000.000000:924000000.000000
GPGPU-Sim uArch: clock periods: 0.00000000142857142857:0.00000000142857142857:0.00000000142857142857:0.00000000108225108225
*** Initializing Memory Statistics ***
GPGPU-Sim uArch: interconnect node map (shaderID+MemID to icntID)
GPGPU-Sim uArch: Memory nodes ID start from index: 15
GPGPU-Sim uArch:    0   1   2   3   4
GPGPU-Sim uArch:    5   6   7   8   9
GPGPU-Sim uArch:   10  11  12  13  14
GPGPU-Sim uArch:   15  16  17  18  19
GPGPU-Sim uArch:   20  21  22  23  24
GPGPU-Sim uArch:   25  26
GPGPU-Sim uArch: interconnect node reverse map (icntID to shaderID+MemID)
GPGPU-Sim uArch: Memory nodes start from ID: 15
GPGPU-Sim uArch:    0   1   2   3   4
GPGPU-Sim uArch:    5   6   7   8   9
GPGPU-Sim uArch:   10  11  12  13  14
GPGPU-Sim uArch:   15  16  17  18  19
GPGPU-Sim uArch:   20  21  22  23  24
GPGPU-Sim uArch:   25  26
374dd9399470f26a44fab5f496e2e839  /home/scratch/adwait/applications/benchmarks/CUDA/STO/gpgpu_ptx_sim__STO
GPGPU-Sim uArch: performance model initialization complete.
GPGPU-Sim PTX: __cudaRegisterFatBinary, fat_cubin_handle = 1, filename=main.cu
self exe links to: /home/scratch/adwait/applications/benchmarks/CUDA/STO/gpgpu_ptx_sim__STO
Running md5sum using "md5sum /home/scratch/adwait/applications/benchmarks/CUDA/STO/gpgpu_ptx_sim__STO "
Running cuobjdump using "$CUDA_INSTALL_PATH/bin/cuobjdump -ptx -elf -sass /home/scratch/adwait/applications/benchmarks/CUDA/STO/gpgpu_ptx_sim__STO > _cuobjdump_complete_output_TpPsNv"
Parsing file _cuobjdump_complete_output_TpPsNv
######### cuobjdump parser ########
## Adding new section ELF
Adding arch: sm_20
Adding identifier: main.cu
## Adding new section PTX
Adding ptx filename: _cuobjdump_1.ptx
Adding arch: sm_20
Adding identifier: main.cu
## Adding new section ELF
Adding arch: sm_20
Adding identifier: storeGPU.cu
## Adding new section PTX
Adding ptx filename: _cuobjdump_2.ptx
Adding arch: sm_20
Adding identifier: storeGPU.cu
Done parsing!!!
GPGPU-Sim PTX: __cudaRegisterFatBinary, fat_cubin_handle = 2, filename=storeGPU.cu
GPGPU-Sim PTX: __cudaRegisterFunction _Z12sha1_overlapPhiiiiS_ : hostFun 0x0x40d965, fat_cubin_handle = 2
GPGPU-Sim PTX: allocating stack frame region for .param "__cudaretf__Z14macroRFunctioniPj" from 0x0 to 0x8
GPGPU-Sim PTX: allocating stack frame region for .param "__cudaparmf1__Z14macroRFunctioniPj" from 0x8 to 0xc
GPGPU-Sim PTX: allocating stack frame region for .param "__cudaparmf2__Z14macroRFunctioniPj" from 0xc to 0x14
GPGPU-Sim PTX: instruction assembly for function '_Z14macroRFunctioniPj'...   done.
GPGPU-Sim PTX: finding reconvergence points for '_Z14macroRFunctioniPj'...
GPGPU-Sim PTX: Finding dominators for '_Z14macroRFunctioniPj'...
GPGPU-Sim PTX: Finding immediate dominators for '_Z14macroRFunctioniPj'...
GPGPU-Sim PTX: Finding postdominators for '_Z14macroRFunctioniPj'...
GPGPU-Sim PTX: Finding immediate postdominators for '_Z14macroRFunctioniPj'...
GPGPU-Sim PTX: pre-decoding instructions for '_Z14macroRFunctioniPj'...
GPGPU-Sim PTX: reconvergence points for _Z14macroRFunctioniPj...
GPGPU-Sim PTX: ... end of reconvergence points for _Z14macroRFunctioniPj
GPGPU-Sim PTX: ... done pre-decoding instructions for '_Z14macroRFunctioniPj'.
GPGPU-Sim PTX: allocating shared region for "__cuda___cuda_local_var_35374_40_non_const_sharedMemory32" from 0x0 to 0x3f80 (shared memory space)
GPGPU-Sim PTX: instruction assembly for function '_Z3md5PhiiiS_'...   done.
GPGPU-Sim PTX: finding reconvergence points for '_Z3md5PhiiiS_'...
GPGPU-Sim PTX: Finding dominators for '_Z3md5PhiiiS_'...
GPGPU-Sim PTX: Finding immediate dominators for '_Z3md5PhiiiS_'...
GPGPU-Sim PTX: Finding postdominators for '_Z3md5PhiiiS_'...
GPGPU-Sim PTX: Finding immediate postdominators for '_Z3md5PhiiiS_'...
GPGPU-Sim PTX: pre-decoding instructions for '_Z3md5PhiiiS_'...
GPGPU-Sim PTX: reconvergence points for _Z3md5PhiiiS_...
GPGPU-Sim PTX:  1 (potential) branch divergence @  PC=0x190 (_2.ptx:127) @%p1 bra $Lt_1_4866;
GPGPU-Sim PTX:    immediate post dominator      @  PC=0x21f0 (_2.ptx:1283) exit;
GPGPU-Sim PTX:  2 (potential) branch divergence @  PC=0x198 (_2.ptx:128) bra.uni $LBB20__Z3md5PhiiiS_;
GPGPU-Sim PTX:    immediate post dominator      @  PC=0x21f0 (_2.ptx:1283) exit;
GPGPU-Sim PTX:  3 (potential) branch divergence @  PC=0x1f0 (_2.ptx:141) @%p3 bra $Lt_1_5634;
GPGPU-Sim PTX:    immediate post dominator      @  PC=0x290 (_2.ptx:167) shr.s32 %r23, %r15, 31;
GPGPU-Sim PTX:  4 (potential) branch divergence @  PC=0x200 (_2.ptx:143) @!%p2 bra $Lt_1_5378;
GPGPU-Sim PTX:    immediate post dominator      @  PC=0x290 (_2.ptx:167) shr.s32 %r23, %r15, 31;
GPGPU-Sim PTX:  5 (potential) branch divergence @  PC=0x278 (_2.ptx:161) @%p4 bra $Lt_1_6402;
GPGPU-Sim PTX:    immediate post dominator      @  PC=0x280 (_2.ptx:162) bra.uni $Lt_1_5378;
GPGPU-Sim PTX:  6 (potential) branch divergence @  PC=0x280 (_2.ptx:162) bra.uni $Lt_1_5378;
GPGPU-Sim PTX:    immediate post dominator      @  PC=0x290 (_2.ptx:167) shr.s32 %r23, %r15, 31;
GPGPU-Sim PTX:  7 (potential) branch divergence @  PC=0x2d0 (_2.ptx:175) @%p5 bra $Lt_1_8706;
GPGPU-Sim PTX:    immediate post dominator      @  PC=0x2198 (_2.ptx:1270) mul.lo.s32 %r234, %r5, 4;
GPGPU-Sim PTX:  8 (potential) branch divergence @  PC=0x4e8 (_2.ptx:257) @%p6 bra $Lt_1_7938;
GPGPU-Sim PTX:    immediate post dominator      @  PC=0x560 (_2.ptx:281) ld.shared.u8 %r69, [%rd20+0];
GPGPU-Sim PTX:  9 (potential) branch divergence @  PC=0x520 (_2.ptx:267) bra.uni $Lt_1_7682;
GPGPU-Sim PTX:    immediate post dominator      @  PC=0x560 (_2.ptx:281) ld.shared.u8 %r69, [%rd20+0];
GPGPU-Sim PTX: 10 (potential) branch divergence @  PC=0x2180 (_2.ptx:1264) @%p7 bra $Lt_1_7426;
GPGPU-Sim PTX:    immediate post dominator      @  PC=0x2188 (_2.ptx:1265) bra.uni $Lt_1_6914;
GPGPU-Sim PTX: 11 (potential) branch divergence @  PC=0x2188 (_2.ptx:1265) bra.uni $Lt_1_6914;
GPGPU-Sim PTX:    immediate post dominator      @  PC=0x2198 (_2.ptx:1270) mul.lo.s32 %r234, %r5, 4;
GPGPU-Sim PTX: ... end of reconvergence points for _Z3md5PhiiiS_
GPGPU-Sim PTX: ... done pre-decoding instructions for '_Z3md5PhiiiS_'.
GPGPU-Sim PTX: allocating shared region for "__cuda___cuda_local_var_35409_40_non_const_sharedMemory16320" from 0x0 to 0x3f80 (shared memory space)
GPGPU-Sim PTX: instruction assembly for function '_Z11md5_overlapPhiiiiS_'...   done.
GPGPU-Sim PTX: finding reconvergence points for '_Z11md5_overlapPhiiiiS_'...
GPGPU-Sim PTX: Finding dominators for '_Z11md5_overlapPhiiiiS_'...
GPGPU-Sim PTX: Finding immediate dominators for '_Z11md5_overlapPhiiiiS_'...
GPGPU-Sim PTX: Finding postdominators for '_Z11md5_overlapPhiiiiS_'...
GPGPU-Sim PTX: Finding immediate postdominators for '_Z11md5_overlapPhiiiiS_'...
GPGPU-Sim PTX: pre-decoding instructions for '_Z11md5_overlapPhiiiiS_'...
GPGPU-Sim PTX: reconvergence points for _Z11md5_overlapPhiiiiS_...
GPGPU-Sim PTX:  1 (potential) branch divergence @  PC=0x2230 (_2.ptx:1308) @%p1 bra $Lt_2_5634;
GPGPU-Sim PTX:    immediate post dominator      @  PC=0x43e8 (_2.ptx:2510) exit;
GPGPU-Sim PTX:  2 (potential) branch divergence @  PC=0x2238 (_2.ptx:1309) bra.uni $LBB23__Z11md5_overlapPhiiiiS_;
GPGPU-Sim PTX:    immediate post dominator      @  PC=0x43e8 (_2.ptx:2510) exit;
GPGPU-Sim PTX:  3 (potential) branch divergence @  PC=0x22b0 (_2.ptx:1326) @%p3 bra $Lt_2_9730;
GPGPU-Sim PTX:    immediate post dominator      @  PC=0x4390 (_2.ptx:2497) mul.lo.s32 %r260, %r5, 4;
GPGPU-Sim PTX:  4 (potential) branch divergence @  PC=0x2440 (_2.ptx:1378) @%p4 bra $Lt_2_7170;
GPGPU-Sim PTX:    immediate post dominator      @  PC=0x2768 (_2.ptx:1510) ld.shared.u8 %r95, [%rd15+0];
GPGPU-Sim PTX:  5 (potential) branch divergence @  PC=0x2488 (_2.ptx:1387) @%p5 bra $Lt_2_9986;
GPGPU-Sim PTX:    immediate post dominator      @  PC=0x2520 (_2.ptx:1411) mov.s32 %r62, 13;
GPGPU-Sim PTX:  6 (potential) branch divergence @  PC=0x2500 (_2.ptx:1405) @%p6 bra $Lt_2_7938;
GPGPU-Sim PTX:    immediate post dominator      @  PC=0x2508 (_2.ptx:1406) mov.s32 %r61, %r52;
GPGPU-Sim PTX:  7 (potential) branch divergence @  PC=0x2510 (_2.ptx:1407) bra.uni $Lt_2_7426;
GPGPU-Sim PTX:    immediate post dominator      @  PC=0x2520 (_2.ptx:1411) mov.s32 %r62, 13;
GPGPU-Sim PTX:  8 (potential) branch divergence @  PC=0x2540 (_2.ptx:1415) @%p7 bra $Lt_2_8450;
GPGPU-Sim PTX:    immediate post dominator      @  PC=0x25e0 (_2.ptx:1440) mov.u32 %r72, 128;
GPGPU-Sim PTX:  9 (potential) branch divergence @  PC=0x25d8 (_2.ptx:1437) @%p8 bra $Lt_2_8962;
GPGPU-Sim PTX:    immediate post dominator      @  PC=0x25e0 (_2.ptx:1440) mov.u32 %r72, 128;
GPGPU-Sim PTX: 10 (potential) branch divergence @  PC=0x2640 (_2.ptx:1454) bra.uni $Lt_2_6914;
GPGPU-Sim PTX:    immediate post dominator      @  PC=0x2768 (_2.ptx:1510) ld.shared.u8 %r95, [%rd15+0];
GPGPU-Sim PTX: 11 (potential) branch divergence @  PC=0x4378 (_2.ptx:2491) @%p9 bra $Lt_2_6658;
GPGPU-Sim PTX:    immediate post dominator      @  PC=0x4380 (_2.ptx:2492) bra.uni $Lt_2_6146;
GPGPU-Sim PTX: 12 (potential) branch divergence @  PC=0x4380 (_2.ptx:2492) bra.uni $Lt_2_6146;
GPGPU-Sim PTX:    immediate post dominator      @  PC=0x4390 (_2.ptx:2497) mul.lo.s32 %r260, %r5, 4;
GPGPU-Sim PTX: ... end of reconvergence points for _Z11md5_overlapPhiiiiS_
GPGPU-Sim PTX: ... done pre-decoding instructions for '_Z11md5_overlapPhiiiiS_'.
GPGPU-Sim PTX: allocating shared region for "__cuda___cuda_local_var_36258_40_non_const_sharedMemory32608" from 0x0 to 0x3f80 (shared memory space)
GPGPU-Sim PTX: instruction assembly for function '_Z4sha1PhiiiS_'...   done.
GPGPU-Sim PTX: finding reconvergence points for '_Z4sha1PhiiiS_'...
GPGPU-Sim PTX: Finding dominators for '_Z4sha1PhiiiS_'...
GPGPU-Sim PTX: Finding immediate dominators for '_Z4sha1PhiiiS_'...
GPGPU-Sim PTX: Finding postdominators for '_Z4sha1PhiiiS_'...
GPGPU-Sim PTX: Finding immediate postdominators for '_Z4sha1PhiiiS_'...
GPGPU-Sim PTX: pre-decoding instructions for '_Z4sha1PhiiiS_'...
GPGPU-Sim PTX: reconvergence points for _Z4sha1PhiiiS_...
GPGPU-Sim PTX:  1 (potential) branch divergence @  PC=0x4428 (_2.ptx:2534) @%p1 bra $Lt_3_4866;
GPGPU-Sim PTX:    immediate post dominator      @  PC=0x9018 (_2.ptx:5165) exit;
GPGPU-Sim PTX:  2 (potential) branch divergence @  PC=0x4430 (_2.ptx:2535) bra.uni $LBB20__Z4sha1PhiiiS_;
GPGPU-Sim PTX:    immediate post dominator      @  PC=0x9018 (_2.ptx:5165) exit;
GPGPU-Sim PTX:  3 (potential) branch divergence @  PC=0x4488 (_2.ptx:2548) @%p3 bra $Lt_3_5634;
GPGPU-Sim PTX:    immediate post dominator      @  PC=0x4528 (_2.ptx:2574) shr.u32 %r23, %r15, 6;
GPGPU-Sim PTX:  4 (potential) branch divergence @  PC=0x4498 (_2.ptx:2550) @!%p2 bra $Lt_3_5378;
GPGPU-Sim PTX:    immediate post dominator      @  PC=0x4528 (_2.ptx:2574) shr.u32 %r23, %r15, 6;
GPGPU-Sim PTX:  5 (potential) branch divergence @  PC=0x4510 (_2.ptx:2568) @%p4 bra $Lt_3_6402;
GPGPU-Sim PTX:    immediate post dominator      @  PC=0x4518 (_2.ptx:2569) bra.uni $Lt_3_5378;
GPGPU-Sim PTX:  6 (potential) branch divergence @  PC=0x4518 (_2.ptx:2569) bra.uni $Lt_3_5378;
GPGPU-Sim PTX:    immediate post dominator      @  PC=0x4528 (_2.ptx:2574) shr.u32 %r23, %r15, 6;
GPGPU-Sim PTX:  7 (potential) branch divergence @  PC=0x4548 (_2.ptx:2578) @%p5 bra $Lt_3_8706;
GPGPU-Sim PTX:    immediate post dominator      @  PC=0x8fc0 (_2.ptx:5152) mul.lo.s32 %r748, %r5, 4;
GPGPU-Sim PTX:  8 (potential) branch divergence @  PC=0x4730 (_2.ptx:2654) @%p6 bra $Lt_3_7938;
GPGPU-Sim PTX:    immediate post dominator      @  PC=0x4820 (_2.ptx:2693) ld.shared.u8 %r69, [%rd21+3];
GPGPU-Sim PTX:  9 (potential) branch divergence @  PC=0x47e0 (_2.ptx:2679) bra.uni $Lt_3_7682;
GPGPU-Sim PTX:    immediate post dominator      @  PC=0x4820 (_2.ptx:2693) ld.shared.u8 %r69, [%rd21+3];
GPGPU-Sim PTX: 10 (potential) branch divergence @  PC=0x8fa8 (_2.ptx:5146) @%p7 bra $Lt_3_7426;
GPGPU-Sim PTX:    immediate post dominator      @  PC=0x8fb0 (_2.ptx:5147) bra.uni $Lt_3_6914;
GPGPU-Sim PTX: 11 (potential) branch divergence @  PC=0x8fb0 (_2.ptx:5147) bra.uni $Lt_3_6914;
GPGPU-Sim PTX:    immediate post dominator      @  PC=0x8fc0 (_2.ptx:5152) mul.lo.s32 %r748, %r5, 4;
GPGPU-Sim PTX: ... end of reconvergence points for _Z4sha1PhiiiS_
GPGPU-Sim PTX: ... done pre-decoding instructions for '_Z4sha1PhiiiS_'.
GPGPU-Sim PTX: allocating shared region for "__cuda___cuda_local_var_36290_40_non_const_sharedMemory48896" from 0x0 to 0x3f80 (shared memory space)
GPGPU-Sim PTX: instruction assembly for function '_Z12sha1_overlapPhiiiiS_'...   done.
GPGPU-Sim PTX: finding reconvergence points for '_Z12sha1_overlapPhiiiiS_'...
GPGPU-Sim PTX: Finding dominators for '_Z12sha1_overlapPhiiiiS_'...
GPGPU-Sim PTX: Finding immediate dominators for '_Z12sha1_overlapPhiiiiS_'...
GPGPU-Sim PTX: Finding postdominators for '_Z12sha1_overlapPhiiiiS_'...
GPGPU-Sim PTX: Finding immediate postdominators for '_Z12sha1_overlapPhiiiiS_'...
GPGPU-Sim PTX: pre-decoding instructions for '_Z12sha1_overlapPhiiiiS_'...
GPGPU-Sim PTX: reconvergence points for _Z12sha1_overlapPhiiiiS_...
GPGPU-Sim PTX:  1 (potential) branch divergence @  PC=0x9058 (_2.ptx:5190) @%p1 bra $Lt_4_5634;
GPGPU-Sim PTX:    immediate post dominator      @  PC=0xde28 (_2.ptx:7884) exit;
GPGPU-Sim PTX:  2 (potential) branch divergence @  PC=0x9060 (_2.ptx:5191) bra.uni $LBB23__Z12sha1_overlapPhiiiiS_;
GPGPU-Sim PTX:    immediate post dominator      @  PC=0xde28 (_2.ptx:7884) exit;
GPGPU-Sim PTX:  3 (potential) branch divergence @  PC=0x90b8 (_2.ptx:5204) @%p3 bra $Lt_4_9730;
GPGPU-Sim PTX:    immediate post dominator      @  PC=0xddd0 (_2.ptx:7871) mul.lo.s32 %r783, %r5, 4;
GPGPU-Sim PTX:  4 (potential) branch divergence @  PC=0x9288 (_2.ptx:5264) @%p4 bra $Lt_4_7170;
GPGPU-Sim PTX:    immediate post dominator      @  PC=0x9628 (_2.ptx:5411) ld.shared.u8 %r101, [%rd15+3];
GPGPU-Sim PTX:  5 (potential) branch divergence @  PC=0x92d0 (_2.ptx:5273) @%p5 bra $Lt_4_9986;
GPGPU-Sim PTX:    immediate post dominator      @  PC=0x9368 (_2.ptx:5297) mov.s32 %r59, 13;
GPGPU-Sim PTX:  6 (potential) branch divergence @  PC=0x9348 (_2.ptx:5291) @%p6 bra $Lt_4_7938;
GPGPU-Sim PTX:    immediate post dominator      @  PC=0x9350 (_2.ptx:5292) mov.s32 %r58, %r49;
GPGPU-Sim PTX:  7 (potential) branch divergence @  PC=0x9358 (_2.ptx:5293) bra.uni $Lt_4_7426;
GPGPU-Sim PTX:    immediate post dominator      @  PC=0x9368 (_2.ptx:5297) mov.s32 %r59, 13;
GPGPU-Sim PTX:  8 (potential) branch divergence @  PC=0x9388 (_2.ptx:5301) @%p7 bra $Lt_4_8450;
GPGPU-Sim PTX:    immediate post dominator      @  PC=0x9428 (_2.ptx:5326) mov.u32 %r69, 128;
GPGPU-Sim PTX:  9 (potential) branch divergence @  PC=0x9420 (_2.ptx:5323) @%p8 bra $Lt_4_8962;
GPGPU-Sim PTX:    immediate post dominator      @  PC=0x9428 (_2.ptx:5326) mov.u32 %r69, 128;
GPGPU-Sim PTX: 10 (potential) branch divergence @  PC=0x9500 (_2.ptx:5355) bra.uni $Lt_4_6914;
GPGPU-Sim PTX:    immediate post dominator      @  PC=0x9628 (_2.ptx:5411) ld.shared.u8 %r101, [%rd15+3];
GPGPU-Sim PTX: 11 (potential) branch divergence @  PC=0xddb8 (_2.ptx:7865) @%p9 bra $Lt_4_6658;
GPGPU-Sim PTX:    immediate post dominator      @  PC=0xddc0 (_2.ptx:7866) bra.uni $Lt_4_6146;
GPGPU-Sim PTX: 12 (potential) branch divergence @  PC=0xddc0 (_2.ptx:7866) bra.uni $Lt_4_6146;
GPGPU-Sim PTX:    immediate post dominator      @  PC=0xddd0 (_2.ptx:7871) mul.lo.s32 %r783, %r5, 4;
GPGPU-Sim PTX: ... end of reconvergence points for _Z12sha1_overlapPhiiiiS_
GPGPU-Sim PTX: ... done pre-decoding instructions for '_Z12sha1_overlapPhiiiiS_'.
GPGPU-Sim PTX: allocating global region for "md5_padding" from 0x100 to 0x140 (global memory space)
GPGPU-Sim PTX: allocating global region for "sha1_padding" from 0x140 to 0x180 (global memory space)
GPGPU-Sim PTX: finished parsing EMBEDDED .ptx file _2.ptx
Adding _cuobjdump_2.ptx with cubin handle 2
GPGPU-Sim PTX: extracting embedded .ptx to temporary file "_ptx_t8j99o"
Running: cat _ptx_t8j99o | sed 's/.version 1.5/.version 1.4/' | sed 's/, texmode_independent//' | sed 's/\(\.extern \.const\[1\] .b8 \w\+\)\[\]/\1\[1\]/' | sed 's/const\[.\]/const\[0\]/g' > _ptx2_uJc0Bi
GPGPU-Sim PTX: generating ptxinfo using "$CUDA_INSTALL_PATH/bin/ptxas --gpu-name=sm_20 -v _ptx2_uJc0Bi --output-file  /dev/null 2> _ptx_t8j99oinfo"
GPGPU-Sim PTX: Kernel '_Z12sha1_overlapPhiiiiS_' : regs=47, lmem=0, smem=16256, cmem=80
GPGPU-Sim PTX: Kernel '_Z4sha1PhiiiS_' : regs=45, lmem=0, smem=16256, cmem=80
GPGPU-Sim PTX: Kernel '_Z11md5_overlapPhiiiiS_' : regs=42, lmem=0, smem=16256, cmem=80
GPGPU-Sim PTX: Kernel '_Z3md5PhiiiS_' : regs=42, lmem=0, smem=16256, cmem=80
GPGPU-Sim PTX: removing ptxinfo using "rm -f _ptx_t8j99o _ptx2_uJc0Bi _ptx_t8j99oinfo"
GPGPU-Sim PTX: loading globals with explicit initializers... 
GPGPU-Sim PTX:     initializing 'md5_padding' ...  wrote 64 bytes
GPGPU-Sim PTX:     initializing 'sha1_padding' ...  wrote 64 bytes
GPGPU-Sim PTX: finished loading globals (128 bytes total).
GPGPU-Sim PTX: loading constants with explicit initializers...  done.
GPGPU-Sim PTX: __cudaRegisterFunction _Z4sha1PhiiiS_ : hostFun 0x0x40d81a, fat_cubin_handle = 2
GPGPU-Sim PTX: __cudaRegisterFunction _Z11md5_overlapPhiiiiS_ : hostFun 0x0x40d6ef, fat_cubin_handle = 2
GPGPU-Sim PTX: __cudaRegisterFunction _Z3md5PhiiiS_ : hostFun 0x0x40d5a4, fat_cubin_handle = 2
GPGPU-Sim PTX: __cudaRegisterVar: hostVar = 0x66b420; deviceAddress = md5_padding; deviceName = md5_padding
GPGPU-Sim PTX: __cudaRegisterVar: Registering const memory space of 64 bytes
GPGPU-Sim PTX registering global md5_padding hostVar to name mapping
GPGPU-Sim PTX: __cudaRegisterVar: hostVar = 0x66b460; deviceAddress = sha1_padding; deviceName = sha1_padding
GPGPU-Sim PTX: __cudaRegisterVar: Registering const memory space of 64 bytes
GPGPU-Sim PTX registering global sha1_padding hostVar to name mapping
Shared Memory Enabled
Pinned Memory Enabled
Reduced Hash Size Enabled
Running SHA1 Overlap Test..
SHA1 Overlap Test


== GPU Execution Context ==
Threads       : 128
Blocks        : 384
Total Threads : 49152
Total size    : 196656
Chunk Size    : 52
Padding       : 0


GPGPU-Sim PTX: cudaLaunch for 0x0x40d965 (mode=performance simulation) on stream 0
GPGPU-Sim PTX: pushing kernel '_Z12sha1_overlapPhiiiiS_' to stream 0, gridDim= (384,1,1) blockDim = (128,1,1) 
kernel '_Z12sha1_overlapPhiiiiS_' transfer to GPU hardware scheduler
GPGPU-Sim uArch: Shader 1 bind to kernel 1 '_Z12sha1_overlapPhiiiiS_'
GPGPU-Sim uArch: CTA/core = 3, limited by: shmem
GPGPU-Sim uArch: core:  1, cta: 0 initialized @(1,0)
GPGPU-Sim uArch: Shader 2 bind to kernel 1 '_Z12sha1_overlapPhiiiiS_'
GPGPU-Sim uArch: core:  2, cta: 0 initialized @(1,0)
GPGPU-Sim uArch: Shader 3 bind to kernel 1 '_Z12sha1_overlapPhiiiiS_'
GPGPU-Sim uArch: core:  3, cta: 0 initialized @(1,0)
GPGPU-Sim uArch: Shader 4 bind to kernel 1 '_Z12sha1_overlapPhiiiiS_'
GPGPU-Sim uArch: core:  4, cta: 0 initialized @(1,0)
GPGPU-Sim uArch: Shader 5 bind to kernel 1 '_Z12sha1_overlapPhiiiiS_'
GPGPU-Sim uArch: core:  5, cta: 0 initialized @(1,0)
GPGPU-Sim uArch: Shader 6 bind to kernel 1 '_Z12sha1_overlapPhiiiiS_'
GPGPU-Sim uArch: core:  6, cta: 0 initialized @(1,0)
GPGPU-Sim uArch: Shader 7 bind to kernel 1 '_Z12sha1_overlapPhiiiiS_'
GPGPU-Sim uArch: core:  7, cta: 0 initialized @(1,0)
GPGPU-Sim uArch: Shader 8 bind to kernel 1 '_Z12sha1_overlapPhiiiiS_'
GPGPU-Sim uArch: core:  8, cta: 0 initialized @(1,0)
GPGPU-Sim uArch: Shader 9 bind to kernel 1 '_Z12sha1_overlapPhiiiiS_'
GPGPU-Sim uArch: core:  9, cta: 0 initialized @(1,0)
GPGPU-Sim uArch: Shader 10 bind to kernel 1 '_Z12sha1_overlapPhiiiiS_'
GPGPU-Sim uArch: core: 10, cta: 0 initialized @(1,0)
GPGPU-Sim uArch: Shader 11 bind to kernel 1 '_Z12sha1_overlapPhiiiiS_'
GPGPU-Sim uArch: core: 11, cta: 0 initialized @(1,0)
GPGPU-Sim uArch: Shader 12 bind to kernel 1 '_Z12sha1_overlapPhiiiiS_'
GPGPU-Sim uArch: core: 12, cta: 0 initialized @(1,0)
GPGPU-Sim uArch: Shader 13 bind to kernel 1 '_Z12sha1_overlapPhiiiiS_'
GPGPU-Sim uArch: core: 13, cta: 0 initialized @(1,0)
GPGPU-Sim uArch: Shader 14 bind to kernel 1 '_Z12sha1_overlapPhiiiiS_'
GPGPU-Sim uArch: core: 14, cta: 0 initialized @(1,0)
GPGPU-Sim uArch: Shader 0 bind to kernel 1 '_Z12sha1_overlapPhiiiiS_'
GPGPU-Sim uArch: core:  0, cta: 0 initialized @(1,0)
GPGPU-Sim uArch: core:  1, cta: 1 initialized @(2,0)
GPGPU-Sim uArch: core:  2, cta: 1 initialized @(2,0)
GPGPU-Sim uArch: core:  3, cta: 1 initialized @(2,0)
GPGPU-Sim uArch: core:  4, cta: 1 initialized @(2,0)
GPGPU-Sim uArch: core:  5, cta: 1 initialized @(2,0)
GPGPU-Sim uArch: core:  6, cta: 1 initialized @(2,0)
GPGPU-Sim uArch: core:  7, cta: 1 initialized @(2,0)
GPGPU-Sim uArch: core:  8, cta: 1 initialized @(2,0)
GPGPU-Sim uArch: core:  9, cta: 1 initialized @(2,0)
GPGPU-Sim uArch: core: 10, cta: 1 initialized @(2,0)
GPGPU-Sim uArch: core: 11, cta: 1 initialized @(2,0)
GPGPU-Sim uArch: core: 12, cta: 1 initialized @(2,0)
GPGPU-Sim uArch: core: 13, cta: 1 initialized @(2,0)
GPGPU-Sim uArch: core: 14, cta: 1 initialized @(2,0)
GPGPU-Sim uArch: core:  0, cta: 1 initialized @(2,0)
GPGPU-Sim uArch: core:  1, cta: 2 initialized @(3,0)
GPGPU-Sim uArch: core:  2, cta: 2 initialized @(3,0)
GPGPU-Sim uArch: core:  3, cta: 2 initialized @(3,0)
GPGPU-Sim uArch: core:  4, cta: 2 initialized @(3,0)
GPGPU-Sim uArch: core:  5, cta: 2 initialized @(3,0)
GPGPU-Sim uArch: core:  6, cta: 2 initialized @(3,0)
GPGPU-Sim uArch: core:  7, cta: 2 initialized @(3,0)
GPGPU-Sim uArch: core:  8, cta: 2 initialized @(3,0)
GPGPU-Sim uArch: core:  9, cta: 2 initialized @(3,0)
GPGPU-Sim uArch: core: 10, cta: 2 initialized @(3,0)
GPGPU-Sim uArch: core: 11, cta: 2 initialized @(3,0)
GPGPU-Sim uArch: core: 12, cta: 2 initialized @(3,0)
GPGPU-Sim uArch: core: 13, cta: 2 initialized @(3,0)
GPGPU-Sim uArch: core: 14, cta: 2 initialized @(3,0)
GPGPU-Sim uArch: core:  0, cta: 2 initialized @(3,0)
GPGPU-Sim uArch: cycles simulated: 500  inst.: 28800 (ipc=57.6) sim_rate=28800 (inst/sec) elapsed = 0:0:00:01 / Tue Apr 16 16:45:34 2019
GPGPU-Sim PTX: 100000 instructions simulated : ctaid=(41,0,0) tid=(31,0,0)
GPGPU-Sim PTX: 200000 instructions simulated : ctaid=(13,0,0) tid=(63,0,0)
GPGPU-Sim uArch: cycles simulated: 1500  inst.: 247680 (ipc=165.1) sim_rate=123840 (inst/sec) elapsed = 0:0:00:02 / Tue Apr 16 16:45:35 2019
GPGPU-Sim PTX: 300000 instructions simulated : ctaid=(36,0,0) tid=(95,0,0)
GPGPU-Sim PTX: 400000 instructions simulated : ctaid=(6,0,0) tid=(95,0,0)
GPGPU-Sim PTX: 500000 instructions simulated : ctaid=(2,0,0) tid=(63,0,0)
GPGPU-Sim PTX: 600000 instructions simulated : ctaid=(42,0,0) tid=(31,0,0)
GPGPU-Sim uArch: cycles simulated: 3500  inst.: 673856 (ipc=192.5) sim_rate=224618 (inst/sec) elapsed = 0:0:00:03 / Tue Apr 16 16:45:36 2019
GPGPU-Sim PTX: 700000 instructions simulated : ctaid=(37,0,0) tid=(31,0,0)
GPGPU-Sim PTX: 800000 instructions simulated : ctaid=(26,0,0) tid=(63,0,0)
GPGPU-Sim PTX: 900000 instructions simulated : ctaid=(29,0,0) tid=(127,0,0)
GPGPU-Sim PTX: 1000000 instructions simulated : ctaid=(11,0,0) tid=(31,0,0)
GPGPU-Sim PTX: 1100000 instructions simulated : ctaid=(15,0,0) tid=(95,0,0)
GPGPU-Sim PTX: 1200000 instructions simulated : ctaid=(18,0,0) tid=(63,0,0)
GPGPU-Sim uArch: cycles simulated: 5500  inst.: 1221536 (ipc=222.1) sim_rate=305384 (inst/sec) elapsed = 0:0:00:04 / Tue Apr 16 16:45:37 2019
GPGPU-Sim PTX: 1300000 instructions simulated : ctaid=(42,0,0) tid=(31,0,0)
GPGPU-Sim PTX: 1400000 instructions simulated : ctaid=(9,0,0) tid=(63,0,0)
GPGPU-Sim PTX: 1500000 instructions simulated : ctaid=(34,0,0) tid=(95,0,0)
GPGPU-Sim PTX: 1600000 instructions simulated : ctaid=(44,0,0) tid=(31,0,0)
GPGPU-Sim uArch: cycles simulated: 7000  inst.: 1629504 (ipc=232.8) sim_rate=325900 (inst/sec) elapsed = 0:0:00:05 / Tue Apr 16 16:45:38 2019
GPGPU-Sim PTX: 1700000 instructions simulated : ctaid=(4,0,0) tid=(31,0,0)
GPGPU-Sim PTX: 1800000 instructions simulated : ctaid=(31,0,0) tid=(127,0,0)
GPGPU-Sim PTX: 1900000 instructions simulated : ctaid=(30,0,0) tid=(63,0,0)
GPGPU-Sim PTX: 2000000 instructions simulated : ctaid=(39,0,0) tid=(63,0,0)
GPGPU-Sim uArch: cycles simulated: 8000  inst.: 1993472 (ipc=249.2) sim_rate=332245 (inst/sec) elapsed = 0:0:00:06 / Tue Apr 16 16:45:39 2019
GPGPU-Sim PTX: 2100000 instructions simulated : ctaid=(7,0,0) tid=(31,0,0)
GPGPU-Sim PTX: 2200000 instructions simulated : ctaid=(21,0,0) tid=(95,0,0)
GPGPU-Sim PTX: 2300000 instructions simulated : ctaid=(8,0,0) tid=(127,0,0)
GPGPU-Sim PTX: 2400000 instructions simulated : ctaid=(11,0,0) tid=(95,0,0)
GPGPU-Sim PTX: 2500000 instructions simulated : ctaid=(5,0,0) tid=(127,0,0)
GPGPU-Sim uArch: cycles simulated: 10000  inst.: 2484800 (ipc=248.5) sim_rate=354971 (inst/sec) elapsed = 0:0:00:07 / Tue Apr 16 16:45:40 2019
GPGPU-Sim PTX: 2600000 instructions simulated : ctaid=(19,0,0) tid=(95,0,0)
GPGPU-Sim PTX: 2700000 instructions simulated : ctaid=(6,0,0) tid=(63,0,0)
GPGPU-Sim PTX: 2800000 instructions simulated : ctaid=(43,0,0) tid=(95,0,0)
GPGPU-Sim PTX: 2900000 instructions simulated : ctaid=(20,0,0) tid=(31,0,0)
GPGPU-Sim uArch: cycles simulated: 11500  inst.: 2912704 (ipc=253.3) sim_rate=364088 (inst/sec) elapsed = 0:0:00:08 / Tue Apr 16 16:45:41 2019
GPGPU-Sim PTX: 3000000 instructions simulated : ctaid=(29,0,0) tid=(63,0,0)
GPGPU-Sim PTX: 3100000 instructions simulated : ctaid=(35,0,0) tid=(31,0,0)
GPGPU-Sim PTX: 3200000 instructions simulated : ctaid=(17,0,0) tid=(95,0,0)
GPGPU-Sim PTX: 3300000 instructions simulated : ctaid=(6,0,0) tid=(63,0,0)
GPGPU-Sim uArch: cycles simulated: 13000  inst.: 3288960 (ipc=253.0) sim_rate=365440 (inst/sec) elapsed = 0:0:00:09 / Tue Apr 16 16:45:42 2019
GPGPU-Sim PTX: 3400000 instructions simulated : ctaid=(31,0,0) tid=(31,0,0)
GPGPU-Sim PTX: 3500000 instructions simulated : ctaid=(20,0,0) tid=(31,0,0)
GPGPU-Sim PTX: 3600000 instructions simulated : ctaid=(8,0,0) tid=(127,0,0)
GPGPU-Sim PTX: 3700000 instructions simulated : ctaid=(5,0,0) tid=(31,0,0)
GPGPU-Sim PTX: 3800000 instructions simulated : ctaid=(30,0,0) tid=(63,0,0)
GPGPU-Sim uArch: cycles simulated: 15000  inst.: 3800480 (ipc=253.4) sim_rate=380048 (inst/sec) elapsed = 0:0:00:10 / Tue Apr 16 16:45:43 2019
GPGPU-Sim PTX: 3900000 instructions simulated : ctaid=(20,0,0) tid=(95,0,0)
GPGPU-Sim PTX: 4000000 instructions simulated : ctaid=(26,0,0) tid=(127,0,0)
GPGPU-Sim PTX: 4100000 instructions simulated : ctaid=(12,0,0) tid=(127,0,0)
GPGPU-Sim PTX: 4200000 instructions simulated : ctaid=(3,0,0) tid=(31,0,0)
GPGPU-Sim uArch: cycles simulated: 16500  inst.: 4208256 (ipc=255.0) sim_rate=382568 (inst/sec) elapsed = 0:0:00:11 / Tue Apr 16 16:45:44 2019
GPGPU-Sim PTX: 4300000 instructions simulated : ctaid=(7,0,0) tid=(95,0,0)
GPGPU-Sim PTX: 4400000 instructions simulated : ctaid=(35,0,0) tid=(63,0,0)
GPGPU-Sim PTX: 4500000 instructions simulated : ctaid=(38,0,0) tid=(127,0,0)
GPGPU-Sim PTX: 4600000 instructions simulated : ctaid=(43,0,0) tid=(31,0,0)
GPGPU-Sim uArch: cycles simulated: 18000  inst.: 4579200 (ipc=254.4) sim_rate=381600 (inst/sec) elapsed = 0:0:00:12 / Tue Apr 16 16:45:45 2019
GPGPU-Sim PTX: 4700000 instructions simulated : ctaid=(23,0,0) tid=(31,0,0)
GPGPU-Sim PTX: 4800000 instructions simulated : ctaid=(26,0,0) tid=(127,0,0)
GPGPU-Sim PTX: 4900000 instructions simulated : ctaid=(9,0,0) tid=(127,0,0)
GPGPU-Sim PTX: 5000000 instructions simulated : ctaid=(33,0,0) tid=(95,0,0)
GPGPU-Sim PTX: 5100000 instructions simulated : ctaid=(38,0,0) tid=(31,0,0)
GPGPU-Sim uArch: cycles simulated: 20000  inst.: 5132032 (ipc=256.6) sim_rate=394771 (inst/sec) elapsed = 0:0:00:13 / Tue Apr 16 16:45:46 2019
GPGPU-Sim PTX: 5200000 instructions simulated : ctaid=(41,0,0) tid=(31,0,0)
GPGPU-Sim PTX: 5300000 instructions simulated : ctaid=(15,0,0) tid=(127,0,0)
GPGPU-Sim PTX: 5400000 instructions simulated : ctaid=(33,0,0) tid=(63,0,0)
GPGPU-Sim PTX: 5500000 instructions simulated : ctaid=(41,0,0) tid=(127,0,0)
GPGPU-Sim uArch: cycles simulated: 21500  inst.: 5500800 (ipc=255.9) sim_rate=392914 (inst/sec) elapsed = 0:0:00:14 / Tue Apr 16 16:45:47 2019
GPGPU-Sim PTX: 5600000 instructions simulated : ctaid=(40,0,0) tid=(63,0,0)
GPGPU-Sim PTX: 5700000 instructions simulated : ctaid=(44,0,0) tid=(63,0,0)
GPGPU-Sim PTX: 5800000 instructions simulated : ctaid=(36,0,0) tid=(127,0,0)
GPGPU-Sim uArch: cycles simulated: 22500  inst.: 5777280 (ipc=256.8) sim_rate=385152 (inst/sec) elapsed = 0:0:00:15 / Tue Apr 16 16:45:48 2019
GPGPU-Sim PTX: 5900000 instructions simulated : ctaid=(8,0,0) tid=(63,0,0)
GPGPU-Sim PTX: 6000000 instructions simulated : ctaid=(19,0,0) tid=(95,0,0)
GPGPU-Sim PTX: 6100000 instructions simulated : ctaid=(13,0,0) tid=(63,0,0)
GPGPU-Sim PTX: 6200000 instructions simulated : ctaid=(27,0,0) tid=(63,0,0)
GPGPU-Sim PTX: 6300000 instructions simulated : ctaid=(12,0,0) tid=(63,0,0)
GPGPU-Sim uArch: cycles simulated: 24500  inst.: 6306016 (ipc=257.4) sim_rate=394126 (inst/sec) elapsed = 0:0:00:16 / Tue Apr 16 16:45:49 2019
GPGPU-Sim PTX: 6400000 instructions simulated : ctaid=(5,0,0) tid=(31,0,0)
GPGPU-Sim PTX: 6500000 instructions simulated : ctaid=(15,0,0) tid=(127,0,0)
GPGPU-Sim PTX: 6600000 instructions simulated : ctaid=(24,0,0) tid=(95,0,0)
GPGPU-Sim PTX: 6700000 instructions simulated : ctaid=(7,0,0) tid=(31,0,0)
GPGPU-Sim uArch: cycles simulated: 26000  inst.: 6698880 (ipc=257.6) sim_rate=394051 (inst/sec) elapsed = 0:0:00:17 / Tue Apr 16 16:45:50 2019
GPGPU-Sim PTX: 6800000 instructions simulated : ctaid=(22,0,0) tid=(95,0,0)
GPGPU-Sim PTX: 6900000 instructions simulated : ctaid=(22,0,0) tid=(95,0,0)
GPGPU-Sim PTX: 7000000 instructions simulated : ctaid=(20,0,0) tid=(31,0,0)
GPGPU-Sim PTX: 7100000 instructions simulated : ctaid=(26,0,0) tid=(127,0,0)
GPGPU-Sim PTX: 7200000 instructions simulated : ctaid=(11,0,0) tid=(127,0,0)
GPGPU-Sim uArch: cycles simulated: 28000  inst.: 7242560 (ipc=258.7) sim_rate=402364 (inst/sec) elapsed = 0:0:00:18 / Tue Apr 16 16:45:51 2019
GPGPU-Sim PTX: 7300000 instructions simulated : ctaid=(24,0,0) tid=(63,0,0)
GPGPU-Sim PTX: 7400000 instructions simulated : ctaid=(24,0,0) tid=(31,0,0)
GPGPU-Sim PTX: 7500000 instructions simulated : ctaid=(7,0,0) tid=(31,0,0)
GPGPU-Sim PTX: 7600000 instructions simulated : ctaid=(0,0,0) tid=(127,0,0)
GPGPU-Sim uArch: cycles simulated: 29500  inst.: 7620480 (ipc=258.3) sim_rate=401077 (inst/sec) elapsed = 0:0:00:19 / Tue Apr 16 16:45:52 2019
GPGPU-Sim PTX: 7700000 instructions simulated : ctaid=(44,0,0) tid=(95,0,0)
GPGPU-Sim PTX: 7800000 instructions simulated : ctaid=(5,0,0) tid=(127,0,0)
GPGPU-Sim PTX: 7900000 instructions simulated : ctaid=(13,0,0) tid=(31,0,0)
GPGPU-Sim PTX: 8000000 instructions simulated : ctaid=(16,0,0) tid=(95,0,0)
GPGPU-Sim uArch: cycles simulated: 31000  inst.: 7989120 (ipc=257.7) sim_rate=399456 (inst/sec) elapsed = 0:0:00:20 / Tue Apr 16 16:45:53 2019
GPGPU-Sim PTX: 8100000 instructions simulated : ctaid=(41,0,0) tid=(127,0,0)
GPGPU-Sim PTX: 8200000 instructions simulated : ctaid=(5,0,0) tid=(31,0,0)
GPGPU-Sim PTX: 8300000 instructions simulated : ctaid=(10,0,0) tid=(95,0,0)
GPGPU-Sim PTX: 8400000 instructions simulated : ctaid=(27,0,0) tid=(127,0,0)
GPGPU-Sim PTX: 8500000 instructions simulated : ctaid=(22,0,0) tid=(63,0,0)
GPGPU-Sim uArch: cycles simulated: 33000  inst.: 8542080 (ipc=258.9) sim_rate=406765 (inst/sec) elapsed = 0:0:00:21 / Tue Apr 16 16:45:54 2019
GPGPU-Sim PTX: 8600000 instructions simulated : ctaid=(25,0,0) tid=(31,0,0)
GPGPU-Sim PTX: 8700000 instructions simulated : ctaid=(23,0,0) tid=(31,0,0)
GPGPU-Sim PTX: 8800000 instructions simulated : ctaid=(35,0,0) tid=(127,0,0)
GPGPU-Sim PTX: 8900000 instructions simulated : ctaid=(6,0,0) tid=(127,0,0)
GPGPU-Sim uArch: cycles simulated: 34500  inst.: 8910720 (ipc=258.3) sim_rate=405032 (inst/sec) elapsed = 0:0:00:22 / Tue Apr 16 16:45:55 2019
GPGPU-Sim PTX: 9000000 instructions simulated : ctaid=(6,0,0) tid=(127,0,0)
GPGPU-Sim PTX: 9100000 instructions simulated : ctaid=(20,0,0) tid=(31,0,0)
GPGPU-Sim PTX: 9200000 instructions simulated : ctaid=(2,0,0) tid=(127,0,0)
GPGPU-Sim PTX: 9300000 instructions simulated : ctaid=(17,0,0) tid=(127,0,0)
GPGPU-Sim PTX: 9400000 instructions simulated : ctaid=(42,0,0) tid=(63,0,0)
GPGPU-Sim uArch: cycles simulated: 36500  inst.: 9453248 (ipc=259.0) sim_rate=411010 (inst/sec) elapsed = 0:0:00:23 / Tue Apr 16 16:45:56 2019
GPGPU-Sim PTX: 9500000 instructions simulated : ctaid=(23,0,0) tid=(95,0,0)
GPGPU-Sim PTX: 9600000 instructions simulated : ctaid=(5,0,0) tid=(95,0,0)
GPGPU-Sim PTX: 9700000 instructions simulated : ctaid=(26,0,0) tid=(127,0,0)
GPGPU-Sim PTX: 9800000 instructions simulated : ctaid=(10,0,0) tid=(31,0,0)
GPGPU-Sim uArch: cycles simulated: 38000  inst.: 9832320 (ipc=258.7) sim_rate=409680 (inst/sec) elapsed = 0:0:00:24 / Tue Apr 16 16:45:57 2019
GPGPU-Sim PTX: 9900000 instructions simulated : ctaid=(28,0,0) tid=(63,0,0)
GPGPU-Sim PTX: 10000000 instructions simulated : ctaid=(14,0,0) tid=(127,0,0)
GPGPU-Sim PTX: 10100000 instructions simulated : ctaid=(5,0,0) tid=(127,0,0)
GPGPU-Sim PTX: 10200000 instructions simulated : ctaid=(30,0,0) tid=(127,0,0)
GPGPU-Sim PTX: 10300000 instructions simulated : ctaid=(35,0,0) tid=(95,0,0)
GPGPU-Sim uArch: cycles simulated: 40000  inst.: 10358944 (ipc=259.0) sim_rate=414357 (inst/sec) elapsed = 0:0:00:25 / Tue Apr 16 16:45:58 2019
GPGPU-Sim PTX: 10400000 instructions simulated : ctaid=(21,0,0) tid=(31,0,0)
GPGPU-Sim PTX: 10500000 instructions simulated : ctaid=(36,0,0) tid=(127,0,0)
GPGPU-Sim PTX: 10600000 instructions simulated : ctaid=(9,0,0) tid=(127,0,0)
GPGPU-Sim PTX: 10700000 instructions simulated : ctaid=(39,0,0) tid=(63,0,0)
GPGPU-Sim uArch: cycles simulated: 41500  inst.: 10753760 (ipc=259.1) sim_rate=413606 (inst/sec) elapsed = 0:0:00:26 / Tue Apr 16 16:45:59 2019
GPGPU-Sim PTX: 10800000 instructions simulated : ctaid=(3,0,0) tid=(127,0,0)
GPGPU-Sim PTX: 10900000 instructions simulated : ctaid=(28,0,0) tid=(95,0,0)
GPGPU-Sim PTX: 11000000 instructions simulated : ctaid=(9,0,0) tid=(63,0,0)
GPGPU-Sim PTX: 11100000 instructions simulated : ctaid=(32,0,0) tid=(127,0,0)
GPGPU-Sim uArch: cycles simulated: 43000  inst.: 11122560 (ipc=258.7) sim_rate=411946 (inst/sec) elapsed = 0:0:00:27 / Tue Apr 16 16:46:00 2019
GPGPU-Sim PTX: 11200000 instructions simulated : ctaid=(21,0,0) tid=(95,0,0)
GPGPU-Sim uArch: cycles simulated: 43500  inst.: 11233216 (ipc=258.2) sim_rate=401186 (inst/sec) elapsed = 0:0:00:28 / Tue Apr 16 16:46:01 2019
GPGPU-Sim PTX: 11300000 instructions simulated : ctaid=(43,0,0) tid=(31,0,0)
GPGPU-Sim PTX: 11400000 instructions simulated : ctaid=(6,0,0) tid=(95,0,0)
GPGPU-Sim uArch: cycles simulated: 44000  inst.: 11398912 (ipc=259.1) sim_rate=393065 (inst/sec) elapsed = 0:0:00:29 / Tue Apr 16 16:46:02 2019
GPGPU-Sim PTX: 11500000 instructions simulated : ctaid=(22,0,0) tid=(127,0,0)
GPGPU-Sim PTX: 11600000 instructions simulated : ctaid=(31,0,0) tid=(127,0,0)
GPGPU-Sim PTX: 11700000 instructions simulated : ctaid=(27,0,0) tid=(63,0,0)
GPGPU-Sim uArch: cycles simulated: 45500  inst.: 11767680 (ipc=258.6) sim_rate=392256 (inst/sec) elapsed = 0:0:00:30 / Tue Apr 16 16:46:03 2019
GPGPU-Sim PTX: 11800000 instructions simulated : ctaid=(41,0,0) tid=(127,0,0)
GPGPU-Sim PTX: 11900000 instructions simulated : ctaid=(11,0,0) tid=(63,0,0)
GPGPU-Sim PTX: 12000000 instructions simulated : ctaid=(37,0,0) tid=(63,0,0)
GPGPU-Sim PTX: 12100000 instructions simulated : ctaid=(26,0,0) tid=(63,0,0)
GPGPU-Sim PTX: 12200000 instructions simulated : ctaid=(38,0,0) tid=(31,0,0)
GPGPU-Sim PTX: 12300000 instructions simulated : ctaid=(19,0,0) tid=(63,0,0)
GPGPU-Sim uArch: cycles simulated: 47500  inst.: 12312512 (ipc=259.2) sim_rate=397177 (inst/sec) elapsed = 0:0:00:31 / Tue Apr 16 16:46:04 2019
GPGPU-Sim PTX: 12400000 instructions simulated : ctaid=(31,0,0) tid=(31,0,0)
GPGPU-Sim PTX: 12500000 instructions simulated : ctaid=(14,0,0) tid=(63,0,0)
GPGPU-Sim PTX: 12600000 instructions simulated : ctaid=(6,0,0) tid=(31,0,0)
GPGPU-Sim PTX: 12700000 instructions simulated : ctaid=(5,0,0) tid=(127,0,0)
GPGPU-Sim uArch: cycles simulated: 49000  inst.: 12689280 (ipc=259.0) sim_rate=396540 (inst/sec) elapsed = 0:0:00:32 / Tue Apr 16 16:46:05 2019
GPGPU-Sim PTX: 12800000 instructions simulated : ctaid=(44,0,0) tid=(63,0,0)
GPGPU-Sim PTX: 12900000 instructions simulated : ctaid=(0,0,0) tid=(31,0,0)
GPGPU-Sim PTX: 13000000 instructions simulated : ctaid=(26,0,0) tid=(31,0,0)
GPGPU-Sim uArch: cycles simulated: 50500  inst.: 13058272 (ipc=258.6) sim_rate=395705 (inst/sec) elapsed = 0:0:00:33 / Tue Apr 16 16:46:06 2019
GPGPU-Sim PTX: 13100000 instructions simulated : ctaid=(0,0,0) tid=(31,0,0)
GPGPU-Sim PTX: 13200000 instructions simulated : ctaid=(11,0,0) tid=(127,0,0)
GPGPU-Sim PTX: 13300000 instructions simulated : ctaid=(1,0,0) tid=(63,0,0)
GPGPU-Sim PTX: 13400000 instructions simulated : ctaid=(8,0,0) tid=(95,0,0)
GPGPU-Sim PTX: 13500000 instructions simulated : ctaid=(1,0,0) tid=(31,0,0)
GPGPU-Sim uArch: cycles simulated: 52000  inst.: 13477856 (ipc=259.2) sim_rate=396407 (inst/sec) elapsed = 0:0:00:34 / Tue Apr 16 16:46:07 2019
GPGPU-Sim PTX: 13600000 instructions simulated : ctaid=(7,0,0) tid=(63,0,0)
GPGPU-Sim PTX: 13700000 instructions simulated : ctaid=(35,0,0) tid=(63,0,0)
GPGPU-Sim PTX: 13800000 instructions simulated : ctaid=(22,0,0) tid=(31,0,0)
GPGPU-Sim PTX: 13900000 instructions simulated : ctaid=(32,0,0) tid=(95,0,0)
GPGPU-Sim uArch: cycles simulated: 53500  inst.: 13886560 (ipc=259.6) sim_rate=396758 (inst/sec) elapsed = 0:0:00:35 / Tue Apr 16 16:46:08 2019
GPGPU-Sim PTX: 14000000 instructions simulated : ctaid=(14,0,0) tid=(63,0,0)
GPGPU-Sim PTX: 14100000 instructions simulated : ctaid=(15,0,0) tid=(127,0,0)
GPGPU-Sim PTX: 14200000 instructions simulated : ctaid=(0,0,0) tid=(31,0,0)
GPGPU-Sim uArch: cycles simulated: 55000  inst.: 14256000 (ipc=259.2) sim_rate=396000 (inst/sec) elapsed = 0:0:00:36 / Tue Apr 16 16:46:09 2019
GPGPU-Sim PTX: 14300000 instructions simulated : ctaid=(42,0,0) tid=(63,0,0)
GPGPU-Sim PTX: 14400000 instructions simulated : ctaid=(4,0,0) tid=(127,0,0)
GPGPU-Sim PTX: 14500000 instructions simulated : ctaid=(14,0,0) tid=(63,0,0)
GPGPU-Sim PTX: 14600000 instructions simulated : ctaid=(3,0,0) tid=(63,0,0)
GPGPU-Sim PTX: 14700000 instructions simulated : ctaid=(10,0,0) tid=(63,0,0)
GPGPU-Sim uArch: cycles simulated: 57000  inst.: 14713152 (ipc=258.1) sim_rate=397652 (inst/sec) elapsed = 0:0:00:37 / Tue Apr 16 16:46:10 2019
GPGPU-Sim uArch: Shader 2 finished CTA #0 (57535,0), 2 CTAs running
GPGPU-Sim uArch: Shader 9 finished CTA #0 (57535,0), 2 CTAs running
GPGPU-Sim uArch: core:  2, cta: 0 initialized @(57536,0)
GPGPU-Sim uArch: core:  9, cta: 0 initialized @(57536,0)
GPGPU-Sim uArch: Shader 10 finished CTA #0 (57584,0), 2 CTAs running
GPGPU-Sim uArch: core: 10, cta: 0 initialized @(57585,0)
GPGPU-Sim uArch: Shader 4 finished CTA #0 (57632,0), 2 CTAs running
GPGPU-Sim uArch: core:  4, cta: 0 initialized @(57633,0)
GPGPU-Sim uArch: Shader 9 finished CTA #1 (57634,0), 2 CTAs running
GPGPU-Sim uArch: Shader 14 finished CTA #0 (57634,0), 2 CTAs running
GPGPU-Sim uArch: core:  9, cta: 1 initialized @(57635,0)
GPGPU-Sim uArch: core: 14, cta: 0 initialized @(57635,0)
GPGPU-Sim uArch: Shader 12 finished CTA #0 (57637,0), 2 CTAs running
GPGPU-Sim uArch: core: 12, cta: 0 initialized @(57638,0)
GPGPU-Sim uArch: Shader 8 finished CTA #0 (57643,0), 2 CTAs running
GPGPU-Sim uArch: core:  8, cta: 0 initialized @(57644,0)
GPGPU-Sim uArch: Shader 3 finished CTA #0 (57667,0), 2 CTAs running
GPGPU-Sim uArch: core:  3, cta: 0 initialized @(57668,0)
GPGPU-Sim uArch: Shader 11 finished CTA #0 (57688,0), 2 CTAs running
GPGPU-Sim uArch: core: 11, cta: 0 initialized @(57689,0)
GPGPU-Sim uArch: Shader 6 finished CTA #0 (57697,0), 2 CTAs running
GPGPU-Sim uArch: core:  6, cta: 0 initialized @(57698,0)
GPGPU-Sim uArch: Shader 2 finished CTA #1 (57706,0), 2 CTAs running
GPGPU-Sim uArch: core:  2, cta: 1 initialized @(57707,0)
GPGPU-Sim uArch: Shader 3 finished CTA #1 (57718,0), 2 CTAs running
GPGPU-Sim uArch: core:  3, cta: 1 initialized @(57719,0)
GPGPU-Sim uArch: Shader 10 finished CTA #1 (57719,0), 2 CTAs running
GPGPU-Sim uArch: core: 10, cta: 1 initialized @(57720,0)
GPGPU-Sim uArch: Shader 0 finished CTA #0 (57724,0), 2 CTAs running
GPGPU-Sim uArch: core:  0, cta: 0 initialized @(57725,0)
GPGPU-Sim uArch: Shader 11 finished CTA #1 (57727,0), 2 CTAs running
GPGPU-Sim uArch: core: 11, cta: 1 initialized @(57728,0)
GPGPU-Sim uArch: Shader 6 finished CTA #1 (57739,0), 2 CTAs running
GPGPU-Sim uArch: core:  6, cta: 1 initialized @(57740,0)
GPGPU-Sim uArch: Shader 4 finished CTA #1 (57764,0), 2 CTAs running
GPGPU-Sim uArch: core:  4, cta: 1 initialized @(57765,0)
GPGPU-Sim uArch: Shader 5 finished CTA #0 (57774,0), 2 CTAs running
GPGPU-Sim uArch: core:  5, cta: 0 initialized @(57775,0)
GPGPU-Sim uArch: Shader 14 finished CTA #1 (57781,0), 2 CTAs running
GPGPU-Sim uArch: core: 14, cta: 1 initialized @(57782,0)
GPGPU-Sim uArch: Shader 2 finished CTA #2 (57784,0), 2 CTAs running
GPGPU-Sim uArch: Shader 8 finished CTA #1 (57784,0), 2 CTAs running
GPGPU-Sim uArch: core:  2, cta: 2 initialized @(57785,0)
GPGPU-Sim uArch: core:  8, cta: 1 initialized @(57785,0)
GPGPU-Sim uArch: Shader 13 finished CTA #0 (57794,0), 2 CTAs running
GPGPU-Sim uArch: core: 13, cta: 0 initialized @(57795,0)
GPGPU-Sim uArch: Shader 10 finished CTA #2 (57796,0), 2 CTAs running
GPGPU-Sim uArch: core: 10, cta: 2 initialized @(57797,0)
GPGPU-Sim uArch: Shader 9 finished CTA #2 (57820,0), 2 CTAs running
GPGPU-Sim uArch: core:  9, cta: 2 initialized @(57821,0)
GPGPU-Sim uArch: Shader 11 finished CTA #2 (57822,0), 2 CTAs running
GPGPU-Sim uArch: core: 11, cta: 2 initialized @(57823,0)
GPGPU-Sim uArch: Shader 12 finished CTA #1 (57823,0), 2 CTAs running
GPGPU-Sim uArch: core: 12, cta: 1 initialized @(57824,0)
GPGPU-Sim uArch: Shader 1 finished CTA #0 (57830,0), 2 CTAs running
GPGPU-Sim uArch: core:  1, cta: 0 initialized @(57831,0)
GPGPU-Sim uArch: Shader 0 finished CTA #1 (57838,0), 2 CTAs running
GPGPU-Sim uArch: core:  0, cta: 1 initialized @(57839,0)
GPGPU-Sim uArch: Shader 3 finished CTA #2 (57841,0), 2 CTAs running
GPGPU-Sim uArch: core:  3, cta: 2 initialized @(57842,0)
GPGPU-Sim uArch: Shader 4 finished CTA #2 (57844,0), 2 CTAs running
GPGPU-Sim uArch: core:  4, cta: 2 initialized @(57845,0)
GPGPU-Sim uArch: Shader 7 finished CTA #0 (57845,0), 2 CTAs running
GPGPU-Sim uArch: core:  7, cta: 0 initialized @(57846,0)
GPGPU-Sim uArch: Shader 6 finished CTA #2 (57853,0), 2 CTAs running
GPGPU-Sim uArch: core:  6, cta: 2 initialized @(57854,0)
GPGPU-Sim uArch: Shader 13 finished CTA #1 (57880,0), 2 CTAs running
GPGPU-Sim uArch: core: 13, cta: 1 initialized @(57881,0)
GPGPU-Sim uArch: Shader 12 finished CTA #2 (57903,0), 2 CTAs running
GPGPU-Sim uArch: core: 12, cta: 2 initialized @(57904,0)
GPGPU-Sim PTX: 14800000 instructions simulated : ctaid=(75,0,0) tid=(63,0,0)
GPGPU-Sim uArch: Shader 0 finished CTA #2 (57916,0), 2 CTAs running
GPGPU-Sim uArch: Shader 13 finished CTA #2 (57916,0), 2 CTAs running
GPGPU-Sim uArch: core: 13, cta: 2 initialized @(57917,0)
GPGPU-Sim uArch: core:  0, cta: 2 initialized @(57917,0)
GPGPU-Sim uArch: Shader 5 finished CTA #1 (57934,0), 2 CTAs running
GPGPU-Sim uArch: core:  5, cta: 1 initialized @(57935,0)
GPGPU-Sim uArch: Shader 1 finished CTA #1 (57964,0), 2 CTAs running
GPGPU-Sim uArch: core:  1, cta: 1 initialized @(57965,0)
GPGPU-Sim uArch: Shader 7 finished CTA #1 (57973,0), 2 CTAs running
GPGPU-Sim uArch: core:  7, cta: 1 initialized @(57974,0)
GPGPU-Sim uArch: Shader 14 finished CTA #2 (57983,0), 2 CTAs running
GPGPU-Sim uArch: core: 14, cta: 2 initialized @(57984,0)
GPGPU-Sim uArch: Shader 8 finished CTA #2 (57985,0), 2 CTAs running
GPGPU-Sim uArch: core:  8, cta: 2 initialized @(57986,0)
GPGPU-Sim uArch: cycles simulated: 58000  inst.: 14791680 (ipc=255.0) sim_rate=369792 (inst/sec) elapsed = 0:0:00:40 / Tue Apr 16 16:46:13 2019
GPGPU-Sim uArch: Shader 1 finished CTA #2 (58003,0), 2 CTAs running
GPGPU-Sim uArch: core:  1, cta: 2 initialized @(58004,0)
GPGPU-Sim uArch: Shader 5 finished CTA #2 (58012,0), 2 CTAs running
GPGPU-Sim uArch: core:  5, cta: 2 initialized @(58013,0)
GPGPU-Sim uArch: Shader 7 finished CTA #2 (58018,0), 2 CTAs running
GPGPU-Sim uArch: core:  7, cta: 2 initialized @(58019,0)
GPGPU-Sim PTX: 14900000 instructions simulated : ctaid=(49,0,0) tid=(31,0,0)
GPGPU-Sim PTX: 15000000 instructions simulated : ctaid=(47,0,0) tid=(127,0,0)
GPGPU-Sim PTX: 15100000 instructions simulated : ctaid=(56,0,0) tid=(127,0,0)
GPGPU-Sim PTX: 15200000 instructions simulated : ctaid=(83,0,0) tid=(95,0,0)
GPGPU-Sim uArch: cycles simulated: 59000  inst.: 15183808 (ipc=257.4) sim_rate=370336 (inst/sec) elapsed = 0:0:00:41 / Tue Apr 16 16:46:14 2019
GPGPU-Sim PTX: 15300000 instructions simulated : ctaid=(64,0,0) tid=(127,0,0)
GPGPU-Sim PTX: 15400000 instructions simulated : ctaid=(69,0,0) tid=(95,0,0)
GPGPU-Sim PTX: 15500000 instructions simulated : ctaid=(57,0,0) tid=(63,0,0)
GPGPU-Sim uArch: cycles simulated: 60000  inst.: 15474336 (ipc=257.9) sim_rate=368436 (inst/sec) elapsed = 0:0:00:42 / Tue Apr 16 16:46:15 2019
GPGPU-Sim PTX: 15600000 instructions simulated : ctaid=(68,0,0) tid=(95,0,0)
GPGPU-Sim PTX: 15700000 instructions simulated : ctaid=(65,0,0) tid=(127,0,0)
GPGPU-Sim PTX: 15800000 instructions simulated : ctaid=(64,0,0) tid=(63,0,0)
GPGPU-Sim PTX: 15900000 instructions simulated : ctaid=(64,0,0) tid=(63,0,0)
GPGPU-Sim uArch: cycles simulated: 61000  inst.: 15907136 (ipc=260.8) sim_rate=369933 (inst/sec) elapsed = 0:0:00:43 / Tue Apr 16 16:46:16 2019
GPGPU-Sim PTX: 16000000 instructions simulated : ctaid=(53,0,0) tid=(31,0,0)
GPGPU-Sim PTX: 16100000 instructions simulated : ctaid=(80,0,0) tid=(31,0,0)
GPGPU-Sim PTX: 16200000 instructions simulated : ctaid=(47,0,0) tid=(63,0,0)
GPGPU-Sim uArch: cycles simulated: 62000  inst.: 16210368 (ipc=261.5) sim_rate=368417 (inst/sec) elapsed = 0:0:00:44 / Tue Apr 16 16:46:17 2019
GPGPU-Sim PTX: 16300000 instructions simulated : ctaid=(64,0,0) tid=(95,0,0)
GPGPU-Sim PTX: 16400000 instructions simulated : ctaid=(70,0,0) tid=(95,0,0)
GPGPU-Sim PTX: 16500000 instructions simulated : ctaid=(72,0,0) tid=(95,0,0)
GPGPU-Sim uArch: cycles simulated: 63000  inst.: 16498752 (ipc=261.9) sim_rate=366638 (inst/sec) elapsed = 0:0:00:45 / Tue Apr 16 16:46:18 2019
GPGPU-Sim PTX: 16600000 instructions simulated : ctaid=(68,0,0) tid=(127,0,0)
GPGPU-Sim PTX: 16700000 instructions simulated : ctaid=(78,0,0) tid=(127,0,0)
GPGPU-Sim PTX: 16800000 instructions simulated : ctaid=(75,0,0) tid=(95,0,0)
GPGPU-Sim PTX: 16900000 instructions simulated : ctaid=(62,0,0) tid=(63,0,0)
GPGPU-Sim uArch: cycles simulated: 64000  inst.: 16891136 (ipc=263.9) sim_rate=367198 (inst/sec) elapsed = 0:0:00:46 / Tue Apr 16 16:46:19 2019
GPGPU-Sim PTX: 17000000 instructions simulated : ctaid=(80,0,0) tid=(63,0,0)
GPGPU-Sim PTX: 17100000 instructions simulated : ctaid=(78,0,0) tid=(127,0,0)
GPGPU-Sim PTX: 17200000 instructions simulated : ctaid=(50,0,0) tid=(63,0,0)
GPGPU-Sim PTX: 17300000 instructions simulated : ctaid=(64,0,0) tid=(31,0,0)
GPGPU-Sim uArch: cycles simulated: 65000  inst.: 17306624 (ipc=266.3) sim_rate=368226 (inst/sec) elapsed = 0:0:00:47 / Tue Apr 16 16:46:20 2019
GPGPU-Sim PTX: 17400000 instructions simulated : ctaid=(56,0,0) tid=(95,0,0)
GPGPU-Sim PTX: 17500000 instructions simulated : ctaid=(62,0,0) tid=(31,0,0)
GPGPU-Sim PTX: 17600000 instructions simulated : ctaid=(70,0,0) tid=(127,0,0)
GPGPU-Sim PTX: 17700000 instructions simulated : ctaid=(63,0,0) tid=(31,0,0)
GPGPU-Sim uArch: cycles simulated: 66000  inst.: 17711552 (ipc=268.4) sim_rate=368990 (inst/sec) elapsed = 0:0:00:48 / Tue Apr 16 16:46:21 2019
GPGPU-Sim PTX: 17800000 instructions simulated : ctaid=(64,0,0) tid=(63,0,0)
GPGPU-Sim PTX: 17900000 instructions simulated : ctaid=(85,0,0) tid=(95,0,0)
GPGPU-Sim uArch: cycles simulated: 66500  inst.: 17904640 (ipc=269.2) sim_rate=365400 (inst/sec) elapsed = 0:0:00:49 / Tue Apr 16 16:46:22 2019
GPGPU-Sim PTX: 18000000 instructions simulated : ctaid=(86,0,0) tid=(95,0,0)
GPGPU-Sim PTX: 18100000 instructions simulated : ctaid=(64,0,0) tid=(127,0,0)
GPGPU-Sim PTX: 18200000 instructions simulated : ctaid=(57,0,0) tid=(63,0,0)
GPGPU-Sim PTX: 18300000 instructions simulated : ctaid=(72,0,0) tid=(127,0,0)
GPGPU-Sim uArch: cycles simulated: 67500  inst.: 18286432 (ipc=270.9) sim_rate=365728 (inst/sec) elapsed = 0:0:00:50 / Tue Apr 16 16:46:23 2019
GPGPU-Sim PTX: 18400000 instructions simulated : ctaid=(73,0,0) tid=(127,0,0)
GPGPU-Sim PTX: 18500000 instructions simulated : ctaid=(62,0,0) tid=(31,0,0)
GPGPU-Sim PTX: 18600000 instructions simulated : ctaid=(80,0,0) tid=(95,0,0)
GPGPU-Sim PTX: 18700000 instructions simulated : ctaid=(75,0,0) tid=(95,0,0)
GPGPU-Sim uArch: cycles simulated: 68500  inst.: 18677504 (ipc=272.7) sim_rate=366225 (inst/sec) elapsed = 0:0:00:51 / Tue Apr 16 16:46:24 2019
GPGPU-Sim PTX: 18800000 instructions simulated : ctaid=(46,0,0) tid=(127,0,0)
GPGPU-Sim PTX: 18900000 instructions simulated : ctaid=(49,0,0) tid=(127,0,0)
GPGPU-Sim PTX: 19000000 instructions simulated : ctaid=(75,0,0) tid=(63,0,0)
GPGPU-Sim PTX: 19100000 instructions simulated : ctaid=(76,0,0) tid=(127,0,0)
GPGPU-Sim uArch: cycles simulated: 69500  inst.: 19066688 (ipc=274.3) sim_rate=366667 (inst/sec) elapsed = 0:0:00:52 / Tue Apr 16 16:46:25 2019
GPGPU-Sim PTX: 19200000 instructions simulated : ctaid=(77,0,0) tid=(31,0,0)
GPGPU-Sim PTX: 19300000 instructions simulated : ctaid=(66,0,0) tid=(31,0,0)
GPGPU-Sim PTX: 19400000 instructions simulated : ctaid=(71,0,0) tid=(63,0,0)
GPGPU-Sim PTX: 19500000 instructions simulated : ctaid=(59,0,0) tid=(127,0,0)
GPGPU-Sim uArch: cycles simulated: 70500  inst.: 19452864 (ipc=275.9) sim_rate=367035 (inst/sec) elapsed = 0:0:00:53 / Tue Apr 16 16:46:26 2019
GPGPU-Sim PTX: 19600000 instructions simulated : ctaid=(86,0,0) tid=(63,0,0)
GPGPU-Sim PTX: 19700000 instructions simulated : ctaid=(45,0,0) tid=(95,0,0)
GPGPU-Sim PTX: 19800000 instructions simulated : ctaid=(75,0,0) tid=(63,0,0)
GPGPU-Sim PTX: 19900000 instructions simulated : ctaid=(81,0,0) tid=(95,0,0)
GPGPU-Sim uArch: cycles simulated: 71500  inst.: 19845920 (ipc=277.6) sim_rate=367517 (inst/sec) elapsed = 0:0:00:54 / Tue Apr 16 16:46:27 2019
GPGPU-Sim PTX: 20000000 instructions simulated : ctaid=(55,0,0) tid=(127,0,0)
GPGPU-Sim PTX: 20100000 instructions simulated : ctaid=(88,0,0) tid=(127,0,0)
GPGPU-Sim PTX: 20200000 instructions simulated : ctaid=(88,0,0) tid=(31,0,0)
GPGPU-Sim uArch: cycles simulated: 72500  inst.: 20238592 (ipc=279.2) sim_rate=367974 (inst/sec) elapsed = 0:0:00:55 / Tue Apr 16 16:46:28 2019
GPGPU-Sim PTX: 20300000 instructions simulated : ctaid=(61,0,0) tid=(31,0,0)
GPGPU-Sim PTX: 20400000 instructions simulated : ctaid=(84,0,0) tid=(63,0,0)
GPGPU-Sim PTX: 20500000 instructions simulated : ctaid=(73,0,0) tid=(31,0,0)
GPGPU-Sim PTX: 20600000 instructions simulated : ctaid=(79,0,0) tid=(63,0,0)
GPGPU-Sim uArch: cycles simulated: 73500  inst.: 20628288 (ipc=280.7) sim_rate=368362 (inst/sec) elapsed = 0:0:00:56 / Tue Apr 16 16:46:29 2019
GPGPU-Sim PTX: 20700000 instructions simulated : ctaid=(66,0,0) tid=(63,0,0)
GPGPU-Sim PTX: 20800000 instructions simulated : ctaid=(89,0,0) tid=(127,0,0)
GPGPU-Sim uArch: cycles simulated: 74000  inst.: 20822208 (ipc=281.4) sim_rate=365301 (inst/sec) elapsed = 0:0:00:57 / Tue Apr 16 16:46:30 2019
GPGPU-Sim PTX: 20900000 instructions simulated : ctaid=(75,0,0) tid=(127,0,0)
GPGPU-Sim PTX: 21000000 instructions simulated : ctaid=(81,0,0) tid=(127,0,0)
GPGPU-Sim PTX: 21100000 instructions simulated : ctaid=(45,0,0) tid=(31,0,0)
GPGPU-Sim PTX: 21200000 instructions simulated : ctaid=(47,0,0) tid=(95,0,0)
GPGPU-Sim uArch: cycles simulated: 75000  inst.: 21207840 (ipc=282.8) sim_rate=365652 (inst/sec) elapsed = 0:0:00:58 / Tue Apr 16 16:46:31 2019
GPGPU-Sim PTX: 21300000 instructions simulated : ctaid=(55,0,0) tid=(63,0,0)
GPGPU-Sim PTX: 21400000 instructions simulated : ctaid=(68,0,0) tid=(127,0,0)
GPGPU-Sim PTX: 21500000 instructions simulated : ctaid=(64,0,0) tid=(31,0,0)
GPGPU-Sim PTX: 21600000 instructions simulated : ctaid=(64,0,0) tid=(63,0,0)
GPGPU-Sim uArch: cycles simulated: 76000  inst.: 21605792 (ipc=284.3) sim_rate=366199 (inst/sec) elapsed = 0:0:00:59 / Tue Apr 16 16:46:32 2019
GPGPU-Sim PTX: 21700000 instructions simulated : ctaid=(51,0,0) tid=(63,0,0)
GPGPU-Sim PTX: 21800000 instructions simulated : ctaid=(66,0,0) tid=(127,0,0)
GPGPU-Sim PTX: 21900000 instructions simulated : ctaid=(87,0,0) tid=(95,0,0)
GPGPU-Sim PTX: 22000000 instructions simulated : ctaid=(59,0,0) tid=(95,0,0)
GPGPU-Sim uArch: cycles simulated: 77000  inst.: 22004608 (ipc=285.8) sim_rate=366743 (inst/sec) elapsed = 0:0:01:00 / Tue Apr 16 16:46:33 2019
GPGPU-Sim PTX: 22100000 instructions simulated : ctaid=(49,0,0) tid=(63,0,0)
GPGPU-Sim PTX: 22200000 instructions simulated : ctaid=(65,0,0) tid=(95,0,0)
GPGPU-Sim PTX: 22300000 instructions simulated : ctaid=(47,0,0) tid=(31,0,0)
GPGPU-Sim PTX: 22400000 instructions simulated : ctaid=(69,0,0) tid=(63,0,0)
GPGPU-Sim uArch: cycles simulated: 78000  inst.: 22392256 (ipc=287.1) sim_rate=367086 (inst/sec) elapsed = 0:0:01:01 / Tue Apr 16 16:46:34 2019
GPGPU-Sim PTX: 22500000 instructions simulated : ctaid=(69,0,0) tid=(63,0,0)
GPGPU-Sim PTX: 22600000 instructions simulated : ctaid=(51,0,0) tid=(127,0,0)
GPGPU-Sim PTX: 22700000 instructions simulated : ctaid=(66,0,0) tid=(63,0,0)
GPGPU-Sim PTX: 22800000 instructions simulated : ctaid=(62,0,0) tid=(95,0,0)
GPGPU-Sim uArch: cycles simulated: 79000  inst.: 22777440 (ipc=288.3) sim_rate=367378 (inst/sec) elapsed = 0:0:01:02 / Tue Apr 16 16:46:35 2019
GPGPU-Sim PTX: 22900000 instructions simulated : ctaid=(74,0,0) tid=(63,0,0)
GPGPU-Sim PTX: 23000000 instructions simulated : ctaid=(72,0,0) tid=(95,0,0)
GPGPU-Sim PTX: 23100000 instructions simulated : ctaid=(85,0,0) tid=(31,0,0)
GPGPU-Sim PTX: 23200000 instructions simulated : ctaid=(72,0,0) tid=(127,0,0)
GPGPU-Sim uArch: cycles simulated: 80000  inst.: 23158976 (ipc=289.5) sim_rate=367602 (inst/sec) elapsed = 0:0:01:03 / Tue Apr 16 16:46:36 2019
GPGPU-Sim PTX: 23300000 instructions simulated : ctaid=(70,0,0) tid=(127,0,0)
GPGPU-Sim PTX: 23400000 instructions simulated : ctaid=(49,0,0) tid=(95,0,0)
GPGPU-Sim PTX: 23500000 instructions simulated : ctaid=(69,0,0) tid=(31,0,0)
GPGPU-Sim uArch: cycles simulated: 81000  inst.: 23543872 (ipc=290.7) sim_rate=367873 (inst/sec) elapsed = 0:0:01:04 / Tue Apr 16 16:46:37 2019
GPGPU-Sim PTX: 23600000 instructions simulated : ctaid=(51,0,0) tid=(95,0,0)
GPGPU-Sim PTX: 23700000 instructions simulated : ctaid=(82,0,0) tid=(127,0,0)
GPGPU-Sim PTX: 23800000 instructions simulated : ctaid=(51,0,0) tid=(127,0,0)
GPGPU-Sim PTX: 23900000 instructions simulated : ctaid=(84,0,0) tid=(63,0,0)
GPGPU-Sim uArch: cycles simulated: 82000  inst.: 23936000 (ipc=291.9) sim_rate=368246 (inst/sec) elapsed = 0:0:01:05 / Tue Apr 16 16:46:38 2019
GPGPU-Sim PTX: 24000000 instructions simulated : ctaid=(53,0,0) tid=(31,0,0)
GPGPU-Sim PTX: 24100000 instructions simulated : ctaid=(85,0,0) tid=(31,0,0)
GPGPU-Sim PTX: 24200000 instructions simulated : ctaid=(59,0,0) tid=(95,0,0)
GPGPU-Sim PTX: 24300000 instructions simulated : ctaid=(81,0,0) tid=(63,0,0)
GPGPU-Sim uArch: cycles simulated: 83000  inst.: 24330176 (ipc=293.1) sim_rate=368639 (inst/sec) elapsed = 0:0:01:06 / Tue Apr 16 16:46:39 2019
GPGPU-Sim PTX: 24400000 instructions simulated : ctaid=(65,0,0) tid=(127,0,0)
GPGPU-Sim PTX: 24500000 instructions simulated : ctaid=(70,0,0) tid=(63,0,0)
GPGPU-Sim PTX: 24600000 instructions simulated : ctaid=(68,0,0) tid=(31,0,0)
GPGPU-Sim PTX: 24700000 instructions simulated : ctaid=(54,0,0) tid=(63,0,0)
GPGPU-Sim uArch: cycles simulated: 84000  inst.: 24715008 (ipc=294.2) sim_rate=368880 (inst/sec) elapsed = 0:0:01:07 / Tue Apr 16 16:46:40 2019
GPGPU-Sim PTX: 24800000 instructions simulated : ctaid=(68,0,0) tid=(127,0,0)
GPGPU-Sim PTX: 24900000 instructions simulated : ctaid=(63,0,0) tid=(31,0,0)
GPGPU-Sim PTX: 25000000 instructions simulated : ctaid=(57,0,0) tid=(127,0,0)
GPGPU-Sim PTX: 25100000 instructions simulated : ctaid=(81,0,0) tid=(63,0,0)
GPGPU-Sim uArch: cycles simulated: 85000  inst.: 25097440 (ipc=295.3) sim_rate=369080 (inst/sec) elapsed = 0:0:01:08 / Tue Apr 16 16:46:41 2019
GPGPU-Sim PTX: 25200000 instructions simulated : ctaid=(59,0,0) tid=(127,0,0)
GPGPU-Sim PTX: 25300000 instructions simulated : ctaid=(59,0,0) tid=(127,0,0)
GPGPU-Sim PTX: 25400000 instructions simulated : ctaid=(72,0,0) tid=(127,0,0)
GPGPU-Sim PTX: 25500000 instructions simulated : ctaid=(54,0,0) tid=(127,0,0)
GPGPU-Sim uArch: cycles simulated: 86000  inst.: 25486720 (ipc=296.4) sim_rate=369372 (inst/sec) elapsed = 0:0:01:09 / Tue Apr 16 16:46:42 2019
GPGPU-Sim PTX: 25600000 instructions simulated : ctaid=(67,0,0) tid=(95,0,0)
GPGPU-Sim PTX: 25700000 instructions simulated : ctaid=(55,0,0) tid=(127,0,0)
GPGPU-Sim uArch: cycles simulated: 86500  inst.: 25682528 (ipc=296.9) sim_rate=366893 (inst/sec) elapsed = 0:0:01:10 / Tue Apr 16 16:46:43 2019
GPGPU-Sim PTX: 25800000 instructions simulated : ctaid=(69,0,0) tid=(31,0,0)
GPGPU-Sim PTX: 25900000 instructions simulated : ctaid=(80,0,0) tid=(95,0,0)
GPGPU-Sim PTX: 26000000 instructions simulated : ctaid=(77,0,0) tid=(31,0,0)
GPGPU-Sim PTX: 26100000 instructions simulated : ctaid=(63,0,0) tid=(63,0,0)
GPGPU-Sim uArch: cycles simulated: 87500  inst.: 26077824 (ipc=298.0) sim_rate=367293 (inst/sec) elapsed = 0:0:01:11 / Tue Apr 16 16:46:44 2019
GPGPU-Sim PTX: 26200000 instructions simulated : ctaid=(49,0,0) tid=(95,0,0)
GPGPU-Sim PTX: 26300000 instructions simulated : ctaid=(69,0,0) tid=(95,0,0)
GPGPU-Sim uArch: cycles simulated: 88000  inst.: 26271776 (ipc=298.5) sim_rate=364885 (inst/sec) elapsed = 0:0:01:12 / Tue Apr 16 16:46:45 2019
GPGPU-Sim PTX: 26400000 instructions simulated : ctaid=(59,0,0) tid=(127,0,0)
GPGPU-Sim PTX: 26500000 instructions simulated : ctaid=(86,0,0) tid=(127,0,0)
GPGPU-Sim PTX: 26600000 instructions simulated : ctaid=(59,0,0) tid=(127,0,0)
GPGPU-Sim PTX: 26700000 instructions simulated : ctaid=(45,0,0) tid=(127,0,0)
GPGPU-Sim uArch: cycles simulated: 89000  inst.: 26653024 (ipc=299.5) sim_rate=365109 (inst/sec) elapsed = 0:0:01:13 / Tue Apr 16 16:46:46 2019
GPGPU-Sim PTX: 26800000 instructions simulated : ctaid=(87,0,0) tid=(95,0,0)
GPGPU-Sim PTX: 26900000 instructions simulated : ctaid=(46,0,0) tid=(127,0,0)
GPGPU-Sim PTX: 27000000 instructions simulated : ctaid=(49,0,0) tid=(63,0,0)
GPGPU-Sim uArch: cycles simulated: 90000  inst.: 27030784 (ipc=300.3) sim_rate=365280 (inst/sec) elapsed = 0:0:01:14 / Tue Apr 16 16:46:47 2019
GPGPU-Sim PTX: 27100000 instructions simulated : ctaid=(52,0,0) tid=(95,0,0)
GPGPU-Sim PTX: 27200000 instructions simulated : ctaid=(50,0,0) tid=(31,0,0)
GPGPU-Sim PTX: 27300000 instructions simulated : ctaid=(77,0,0) tid=(95,0,0)
GPGPU-Sim PTX: 27400000 instructions simulated : ctaid=(77,0,0) tid=(31,0,0)
GPGPU-Sim uArch: cycles simulated: 91000  inst.: 27423968 (ipc=301.4) sim_rate=365652 (inst/sec) elapsed = 0:0:01:15 / Tue Apr 16 16:46:48 2019
GPGPU-Sim PTX: 27500000 instructions simulated : ctaid=(79,0,0) tid=(95,0,0)
GPGPU-Sim PTX: 27600000 instructions simulated : ctaid=(73,0,0) tid=(31,0,0)
GPGPU-Sim PTX: 27700000 instructions simulated : ctaid=(52,0,0) tid=(63,0,0)
GPGPU-Sim PTX: 27800000 instructions simulated : ctaid=(81,0,0) tid=(95,0,0)
GPGPU-Sim uArch: cycles simulated: 92000  inst.: 27822336 (ipc=302.4) sim_rate=366083 (inst/sec) elapsed = 0:0:01:16 / Tue Apr 16 16:46:49 2019
GPGPU-Sim PTX: 27900000 instructions simulated : ctaid=(56,0,0) tid=(95,0,0)
GPGPU-Sim PTX: 28000000 instructions simulated : ctaid=(89,0,0) tid=(31,0,0)
GPGPU-Sim PTX: 28100000 instructions simulated : ctaid=(48,0,0) tid=(31,0,0)
GPGPU-Sim PTX: 28200000 instructions simulated : ctaid=(69,0,0) tid=(95,0,0)
GPGPU-Sim uArch: cycles simulated: 93000  inst.: 28212064 (ipc=303.4) sim_rate=366390 (inst/sec) elapsed = 0:0:01:17 / Tue Apr 16 16:46:50 2019
GPGPU-Sim PTX: 28300000 instructions simulated : ctaid=(63,0,0) tid=(31,0,0)
GPGPU-Sim PTX: 28400000 instructions simulated : ctaid=(57,0,0) tid=(63,0,0)
GPGPU-Sim PTX: 28500000 instructions simulated : ctaid=(74,0,0) tid=(95,0,0)
GPGPU-Sim PTX: 28600000 instructions simulated : ctaid=(66,0,0) tid=(127,0,0)
GPGPU-Sim uArch: cycles simulated: 94000  inst.: 28592992 (ipc=304.2) sim_rate=366576 (inst/sec) elapsed = 0:0:01:18 / Tue Apr 16 16:46:51 2019
GPGPU-Sim PTX: 28700000 instructions simulated : ctaid=(84,0,0) tid=(95,0,0)
GPGPU-Sim PTX: 28800000 instructions simulated : ctaid=(64,0,0) tid=(95,0,0)
GPGPU-Sim PTX: 28900000 instructions simulated : ctaid=(45,0,0) tid=(63,0,0)
GPGPU-Sim PTX: 29000000 instructions simulated : ctaid=(87,0,0) tid=(63,0,0)
GPGPU-Sim uArch: cycles simulated: 95000  inst.: 28969824 (ipc=304.9) sim_rate=366706 (inst/sec) elapsed = 0:0:01:19 / Tue Apr 16 16:46:52 2019
GPGPU-Sim PTX: 29100000 instructions simulated : ctaid=(70,0,0) tid=(127,0,0)
GPGPU-Sim PTX: 29200000 instructions simulated : ctaid=(78,0,0) tid=(31,0,0)
GPGPU-Sim uArch: Shader 9 finished CTA #0 (95690,0), 2 CTAs running
GPGPU-Sim uArch: core:  9, cta: 0 initialized @(95691,0)
GPGPU-Sim uArch: Shader 9 finished CTA #1 (95773,0), 2 CTAs running
GPGPU-Sim uArch: core:  9, cta: 1 initialized @(95774,0)
GPGPU-Sim uArch: Shader 3 finished CTA #0 (95804,0), 2 CTAs running
GPGPU-Sim uArch: core:  3, cta: 0 initialized @(95805,0)
GPGPU-Sim uArch: Shader 10 finished CTA #0 (95828,0), 2 CTAs running
GPGPU-Sim uArch: core: 10, cta: 0 initialized @(95829,0)
GPGPU-Sim uArch: Shader 4 finished CTA #0 (95840,0), 2 CTAs running
GPGPU-Sim uArch: core:  4, cta: 0 initialized @(95841,0)
GPGPU-Sim uArch: Shader 8 finished CTA #0 (95885,0), 2 CTAs running
GPGPU-Sim uArch: core:  8, cta: 0 initialized @(95886,0)
GPGPU-Sim uArch: Shader 9 finished CTA #2 (95892,0), 2 CTAs running
GPGPU-Sim uArch: core:  9, cta: 2 initialized @(95893,0)
GPGPU-Sim uArch: Shader 3 finished CTA #1 (95912,0), 2 CTAs running
GPGPU-Sim uArch: core:  3, cta: 1 initialized @(95913,0)
GPGPU-Sim uArch: Shader 10 finished CTA #1 (95924,0), 2 CTAs running
GPGPU-Sim uArch: core: 10, cta: 1 initialized @(95925,0)
GPGPU-Sim uArch: Shader 8 finished CTA #1 (95957,0), 2 CTAs running
GPGPU-Sim uArch: core:  8, cta: 1 initialized @(95958,0)
GPGPU-Sim uArch: Shader 14 finished CTA #0 (95975,0), 2 CTAs running
GPGPU-Sim uArch: core: 14, cta: 0 initialized @(95976,0)
GPGPU-Sim uArch: Shader 4 finished CTA #1 (95978,0), 2 CTAs running
GPGPU-Sim uArch: core:  4, cta: 1 initialized @(95979,0)
GPGPU-Sim uArch: cycles simulated: 96000  inst.: 29230944 (ipc=304.5) sim_rate=365386 (inst/sec) elapsed = 0:0:01:20 / Tue Apr 16 16:46:53 2019
GPGPU-Sim uArch: Shader 4 finished CTA #2 (96022,0), 2 CTAs running
GPGPU-Sim uArch: core:  4, cta: 2 initialized @(96023,0)
GPGPU-Sim PTX: 29300000 instructions simulated : ctaid=(83,0,0) tid=(95,0,0)
GPGPU-Sim uArch: Shader 14 finished CTA #1 (96047,0), 2 CTAs running
GPGPU-Sim uArch: core: 14, cta: 1 initialized @(96048,0)
GPGPU-Sim uArch: Shader 3 finished CTA #2 (96093,0), 2 CTAs running
GPGPU-Sim uArch: core:  3, cta: 2 initialized @(96094,0)
GPGPU-Sim uArch: Shader 13 finished CTA #0 (96095,0), 2 CTAs running
GPGPU-Sim uArch: core: 13, cta: 0 initialized @(96096,0)
GPGPU-Sim uArch: Shader 10 finished CTA #2 (96123,0), 2 CTAs running
GPGPU-Sim uArch: core: 10, cta: 2 initialized @(96124,0)
GPGPU-Sim uArch: Shader 8 finished CTA #2 (96129,0), 2 CTAs running
GPGPU-Sim uArch: core:  8, cta: 2 initialized @(96130,0)
GPGPU-Sim uArch: Shader 14 finished CTA #2 (96146,0), 2 CTAs running
GPGPU-Sim uArch: core: 14, cta: 2 initialized @(96147,0)
GPGPU-Sim uArch: Shader 13 finished CTA #1 (96167,0), 2 CTAs running
GPGPU-Sim uArch: core: 13, cta: 1 initialized @(96168,0)
GPGPU-Sim uArch: Shader 13 finished CTA #2 (96239,0), 2 CTAs running
GPGPU-Sim uArch: core: 13, cta: 2 initialized @(96240,0)
GPGPU-Sim PTX: 29400000 instructions simulated : ctaid=(92,0,0) tid=(127,0,0)
GPGPU-Sim uArch: cycles simulated: 96500  inst.: 29401696 (ipc=304.7) sim_rate=358557 (inst/sec) elapsed = 0:0:01:22 / Tue Apr 16 16:46:55 2019
GPGPU-Sim PTX: 29500000 instructions simulated : ctaid=(79,0,0) tid=(63,0,0)
GPGPU-Sim uArch: Shader 6 finished CTA #0 (96842,0), 2 CTAs running
GPGPU-Sim uArch: core:  6, cta: 0 initialized @(96843,0)
GPGPU-Sim PTX: 29600000 instructions simulated : ctaid=(94,0,0) tid=(31,0,0)
GPGPU-Sim uArch: Shader 6 finished CTA #1 (96914,0), 2 CTAs running
GPGPU-Sim uArch: core:  6, cta: 1 initialized @(96915,0)
GPGPU-Sim uArch: Shader 6 finished CTA #2 (97009,0), 2 CTAs running
GPGPU-Sim uArch: core:  6, cta: 2 initialized @(97010,0)
GPGPU-Sim uArch: Shader 11 finished CTA #0 (97139,0), 2 CTAs running
GPGPU-Sim uArch: core: 11, cta: 0 initialized @(97140,0)
GPGPU-Sim uArch: Shader 5 finished CTA #0 (97160,0), 2 CTAs running
GPGPU-Sim uArch: core:  5, cta: 0 initialized @(97161,0)
[...]
traffic_breakdown_memtocore[GLOBAL_ACC_W] = 196608 {8:24576,}
traffic_breakdown_memtocore[INST_ACC_R] = 2736864 {136:20124,}
maxmrqlatency = 197 
maxdqlatency = 0 
maxmflatency = 760 
averagemflatency = 228 
max_icnt2mem_latency = 281 
max_icnt2sh_latency = 364176 
mrq_lat_table:3225 	400 	237 	2826 	1585 	649 	407 	45 	0 	0 	0 	0 	0 	0 	0 	0 	0 	0 	0 	0 	0 	0 	0 	0 	0 	0 	0 	0 	0 	0 	0 	0 	
dq_lat_table:0 	0 	0 	0 	0 	0 	0 	0 	0 	0 	0 	0 	0 	0 	0 	0 	0 	0 	0 	0 	0 	0 	0 	0 	0 	0 	0 	0 	0 	0 	0 	0 	
mf_lat_table:0 	0 	0 	0 	0 	0 	0 	19772 	7969 	336 	0 	0 	0 	0 	0 	0 	0 	0 	0 	0 	0 	0 	0 	0 	0 	0 	0 	0 	0 	0 	0 	0 	
icnt2mem_lat_table:0 	0 	0 	24171 	1851 	17562 	4155 	436 	26 	0 	0 	0 	0 	0 	0 	0 	0 	0 	0 	0 	0 	0 	0 	0 	
icnt2sh_lat_table:0 	0 	0 	1995 	1262 	238 	6 	0 	0 	0 	0 	0 	0 	0 	0 	2880 	2880 	11520 	7296 	0 	0 	0 	0 	0 	
mf_lat_pw_table:0 	0 	0 	0 	0 	0 	0 	113 	22 	0 	0 	0 	0 	0 	0 	0 	0 	0 	0 	0 	0 	0 	0 	0 	0 	0 	0 	0 	0 	0 	0 	0 	
maximum concurrent accesses to same row:
dram[0]:         7         8         6         5        10        10         0         0         0         0         0         0         0         0         0         0 
dram[1]:         8         8         6         4        10        10         0         0         0         0         0         0         0         0         0         0 
dram[2]:         8         8         6         4        10        12         0         0         0         0         0         0         0         0         0         0 
dram[3]:         8         8         6         4        10        12         0         0         0         0         0         0         0         0         0         0 
dram[4]:         8         8         6         4        10        12         0         0         0         0         0         0         0         0         0         0 
dram[5]:         7         8         6         4        10        12         0         0         0         0         0         0         0         0         0         0 
maximum service time to same row:
dram[0]:    134710    130216    177802    207538    320857    321478      3210      3238     99816    100104    177571    211640     56853     56950     57139     57297 
dram[1]:    134370    129300    177109    206864    320855    321478      3213      3244     99822    100132    177600    211647     56825     56844     57046     57154 
dram[2]:    133697    128622    176438    206182    320863    321514      3244      3256    100099    100462    177932    212001     56850     56874     57170     57157 
dram[3]:    133319    129103    209597    205981    321379    321788      3257      3262    100101    101510    211622    212225     56824     56822     57143     57183 
dram[4]:    132705    128403    208915    205268    321424    321827      3213      3251    100116    101500    211613    212212     56841     56810     57057     57143 
dram[5]:    130470    127712    208231    204577    321442    321839      3229      3265    100124    101521    211632    212235     56844     56853     57171     57102 
average row accesses per activate:
dram[0]: 42.250000 84.000000 83.000000 82.500000 60.000000 60.000000 32.000000 32.000000 32.000000 32.000000 32.000000 32.000000 72.000000 72.000000 160.000000 160.000000 
dram[1]: 84.000000 84.000000 83.000000 82.000000 60.000000 60.000000 32.000000 32.000000 32.000000 32.000000 32.000000 32.000000 72.000000 72.000000 160.000000 160.000000 
dram[2]: 84.000000 84.000000 83.000000 82.000000 60.000000 61.000000 32.000000 32.000000 32.000000 32.000000 32.000000 32.000000 72.000000 71.000000 160.000000 160.000000 
dram[3]: 84.000000 84.000000 83.000000 82.000000 60.000000 56.000000 32.000000 32.000000 32.000000 32.000000 32.000000 32.000000 72.000000 80.000000 160.000000 160.000000 
dram[4]: 84.000000 84.000000 83.000000 82.000000 60.000000 56.000000 32.000000 32.000000 32.000000 32.000000 32.000000 32.000000 72.000000 80.000000 160.000000 160.000000 
dram[5]: 83.500000 84.000000 83.000000 82.000000 60.000000 56.000000 32.000000 32.000000 32.000000 32.000000 32.000000 32.000000 72.000000 80.000000 160.000000 160.000000 
average row locality = 9374/134 = 69.955223
number of total memory accesses made:
dram[0]:         0         0         0         0         0         0         0         0         0         0         0         0         0         0         0         0 
dram[1]:         0         0         0         0         0         0         0         0         0         0         0         0         0         0         0         0 
dram[2]:         0         0         0         0         0         0         0         0         0         0         0         0         0         0         0         0 
dram[3]:         0         0         0         0         0         0         0         0         0         0         0         0         0         0         0         0 
dram[4]:         0         0         0         0         0         0         0         0         0         0         0         0         0         0         0         0 
dram[5]:         0         0         0         0         0         0         0         0         0         0         0         0         0         0         0         0 
total accesses: 0
min_bank_accesses = 0!
min_chip_accesses = 0!
number of total read accesses:
dram[0]:        41        40        38        37        32        32        32        32        32        32        32        32        32        32        32        32 
dram[1]:        40        40        38        36        32        32        32        32        32        32        32        32        32        32        32        32 
dram[2]:        40        40        38        36        32        34        32        32        32        32        32        32        32        31        32        32 
dram[3]:        40        40        38        36        32        32        32        32        32        32        32        32        32        32        32        32 
dram[4]:        40        40        38        36        32        32        32        32        32        32        32        32        32        32        32        32 
dram[5]:        39        40        38        36        32        32        32        32        32        32        32        32        32        32        32        32 
total reads: 3230
bank skew: 41/31 = 1.32
chip skew: 540/537 = 1.01
number of total write accesses:
dram[0]:       128       128       128       128        88        88         0         0         0         0         0         0        40        40       128       128 
dram[1]:       128       128       128       128        88        88         0         0         0         0         0         0        40        40       128       128 
dram[2]:       128       128       128       128        88        88         0         0         0         0         0         0        40        40       128       128 
dram[3]:       128       128       128       128        88        80         0         0         0         0         0         0        40        48       128       128 
dram[4]:       128       128       128       128        88        80         0         0         0         0         0         0        40        48       128       128 
dram[5]:       128       128       128       128        88        80         0         0         0         0         0         0        40        48       128       128 
total reads: 6144
min_bank_accesses = 0!
chip skew: 1024/1024 = 1.00
average mf latency per bank:
dram[0]:        694       686       685       690       739       760       778       912       277       293       293       284       702       856       778       786
dram[1]:        672       672       679       688       698       698       526       720       272       275       273       273       736       731       794       754
dram[2]:        673       677       682       686       747       737       796       919       344       349       348       346       781       712       830       751
dram[3]:        651       649       663       672       690       670       520       684       269       271       270       269       755       812       740       761
dram[4]:        669       659       680       697       761       751      1154       804       283       298       297       287       754       824       747       738
dram[5]:        682       681       695       696       727       690       823       557       272       273       274       272       710       799       781       762
maximum mf latency per bank:
dram[0]:        392       373       357       378       363       371       338       322       282       279       290       277       600       723       659       760
dram[1]:        366       362       370       366       352       372       360       335       292       307       303       303       625       622       666       647
dram[2]:        383       394       363       362       352       368       318       341       299       322       313       291       584       567       677       621
dram[3]:        352       383       363       370       378       387       321       351       291       292       316       299       639       744       675       655
dram[4]:        406       373       368       377       393       369       395       313       299       290       310       303       561       679       608       634
dram[5]:        380       382       380       385       384       405       337       329       302       298       301       295       643       680       669       678

Number of Memory Banks Accessed per Memory Operation per Warp (from 0):
0	0	0	0	0	0	0	0	0	0	0	0	0	0	0	0	0	0	0	0	0	0	0	0	0	0	0	0	0	0	0	0	0	0	0	0	0	0	0	0	0	0	0	0	0	0	0	0	0	0	0	0	0	0	0	0	0	0	0	0	0	0	0	0	0	0	0	0	0	0	0	0	0	0	0	0	0	0	0	0	0	0	0	0	0	0	0	0	0	0	0	0	0	0	0	0	
Average # of Memory Banks Accessed per Memory Operation per Warp=-nan

position of mrq chosen
0	0	0	0	0	0	0	0	0	0	0	0	0	0	0	0	

average position of mrq chosen = -nan
Memory Partition 0: 
Cache L2_bank_000:
MSHR contents

Cache L2_bank_001:
MSHR contents

In Dram Latency Queue (total = 0): 
DRAM[0]: 16 bks, busW=4 BL=8 CL=12, tRRD=2 tCCD=6, tRCD=12 tRAS=28 tRP=12 tRC=40
n_cmd=480713 n_nop=478577 n_act=24 n_pre=8 n_req=1564 n_rd=1080 n_write=1024 bw_util=0.008754
n_activity=13571 dram_eff=0.3101
bk0: 82a 479468i bk1: 80a 479525i bk2: 76a 479566i bk3: 74a 479569i bk4: 64a 479868i bk5: 64a 479790i bk6: 64a 480471i bk7: 64a 480445i bk8: 64a 480563i bk9: 64a 480540i bk10: 64a 480554i bk11: 64a 480566i bk12: 64a 480159i bk13: 64a 480027i bk14: 64a 479386i bk15: 64a 479405i 
dram_util_bins: 0 0 0 0 0 0 0 0 0 0
dram_eff_bins: 0 0 0 0 0 0 0 0 0 0
mrqq: max=16 avg=0.0615898
Memory Partition 1: 
Cache L2_bank_002:
MSHR contents

Cache L2_bank_003:
MSHR contents

In Dram Latency Queue (total = 0): 
DRAM[1]: 16 bks, busW=4 BL=8 CL=12, tRRD=2 tCCD=6, tRCD=12 tRAS=28 tRP=12 tRC=40
n_cmd=480713 n_nop=478585 n_act=22 n_pre=6 n_req=1562 n_rd=1076 n_write=1024 bw_util=0.008737
n_activity=12893 dram_eff=0.3258
bk0: 80a 479528i bk1: 80a 479524i bk2: 76a 479556i bk3: 72a 479539i bk4: 64a 479845i bk5: 64a 479817i bk6: 64a 480409i bk7: 64a 480441i bk8: 64a 480531i bk9: 64a 480526i bk10: 64a 480532i bk11: 64a 480539i bk12: 64a 480014i bk13: 64a 479978i bk14: 64a 479302i bk15: 64a 479329i 
dram_util_bins: 0 0 0 0 0 0 0 0 0 0
dram_eff_bins: 0 0 0 0 0 0 0 0 0 0
mrqq: max=16 avg=0.0691972
Memory Partition 2: 
Cache L2_bank_004:
MSHR contents

Cache L2_bank_005:
MSHR contents

In Dram Latency Queue (total = 0): 
DRAM[2]: 16 bks, busW=4 BL=8 CL=12, tRRD=2 tCCD=6, tRCD=12 tRAS=28 tRP=12 tRC=40
n_cmd=480713 n_nop=478583 n_act=22 n_pre=6 n_req=1563 n_rd=1078 n_write=1024 bw_util=0.008745
n_activity=13342 dram_eff=0.3151
bk0: 80a 479556i bk1: 80a 479506i bk2: 76a 479564i bk3: 72a 479547i bk4: 64a 479850i bk5: 68a 479793i bk6: 64a 480486i bk7: 64a 480479i bk8: 64a 480565i bk9: 64a 480520i bk10: 64a 480548i bk11: 64a 480546i bk12: 64a 480030i bk13: 62a 480057i bk14: 64a 479422i bk15: 64a 479329i 
dram_util_bins: 0 0 0 0 0 0 0 0 0 0
dram_eff_bins: 0 0 0 0 0 0 0 0 0 0
mrqq: max=16 avg=0.0697277
Memory Partition 3: 
Cache L2_bank_006:
MSHR contents

Cache L2_bank_007:
MSHR contents

In Dram Latency Queue (total = 0): 
DRAM[3]: 16 bks, busW=4 BL=8 CL=12, tRRD=2 tCCD=6, tRCD=12 tRAS=28 tRP=12 tRC=40
n_cmd=480713 n_nop=478585 n_act=22 n_pre=6 n_req=1562 n_rd=1076 n_write=1024 bw_util=0.008737
n_activity=13045 dram_eff=0.322
bk0: 80a 479463i bk1: 80a 479496i bk2: 76a 479573i bk3: 72a 479544i bk4: 64a 479874i bk5: 64a 479849i bk6: 64a 480473i bk7: 64a 480443i bk8: 64a 480546i bk9: 64a 480521i bk10: 64a 480524i bk11: 64a 480534i bk12: 64a 480106i bk13: 64a 479911i bk14: 64a 479417i bk15: 64a 479377i 
dram_util_bins: 0 0 0 0 0 0 0 0 0 0
dram_eff_bins: 0 0 0 0 0 0 0 0 0 0
mrqq: max=16 avg=0.0640133
Memory Partition 4: 
Cache L2_bank_008:
MSHR contents

Cache L2_bank_009:
MSHR contents

In Dram Latency Queue (total = 0): 
DRAM[4]: 16 bks, busW=4 BL=8 CL=12, tRRD=2 tCCD=6, tRCD=12 tRAS=28 tRP=12 tRC=40
n_cmd=480713 n_nop=478585 n_act=22 n_pre=6 n_req=1562 n_rd=1076 n_write=1024 bw_util=0.008737
n_activity=13204 dram_eff=0.3181
bk0: 80a 479525i bk1: 80a 479508i bk2: 76a 479541i bk3: 72a 479526i bk4: 64a 479856i bk5: 64a 479902i bk6: 64a 480484i bk7: 64a 480479i bk8: 64a 480526i bk9: 64a 480525i bk10: 64a 480568i bk11: 64a 480547i bk12: 64a 480039i bk13: 64a 479884i bk14: 64a 479304i bk15: 64a 479376i 
dram_util_bins: 0 0 0 0 0 0 0 0 0 0
dram_eff_bins: 0 0 0 0 0 0 0 0 0 0
mrqq: max=16 avg=0.0602189
Memory Partition 5: 
Cache L2_bank_010:
MSHR contents

Cache L2_bank_011:
MSHR contents

In Dram Latency Queue (total = 0): 
DRAM[5]: 16 bks, busW=4 BL=8 CL=12, tRRD=2 tCCD=6, tRCD=12 tRAS=28 tRP=12 tRC=40
n_cmd=480713 n_nop=478587 n_act=22 n_pre=6 n_req=1561 n_rd=1074 n_write=1024 bw_util=0.008729
n_activity=12779 dram_eff=0.3284
bk0: 78a 479538i bk1: 80a 479472i bk2: 76a 479570i bk3: 72a 479509i bk4: 64a 479852i bk5: 64a 479866i bk6: 64a 480458i bk7: 64a 480458i bk8: 64a 480507i bk9: 64a 480534i bk10: 64a 480552i bk11: 64a 480529i bk12: 64a 480065i bk13: 64a 479870i bk14: 64a 479353i bk15: 64a 479357i 
dram_util_bins: 0 0 0 0 0 0 0 0 0 0
dram_eff_bins: 0 0 0 0 0 0 0 0 0 0
mrqq: max=16 avg=0.0632727

========= L2 cache stats =========
L2_cache_bank[0]: Access = 4177, Miss = 271, Miss_rate = 0.065, Pending_hits = 429, Reservation_fails = 1437
L2_cache_bank[1]: Access = 4068, Miss = 269, Miss_rate = 0.066, Pending_hits = 423, Reservation_fails = 1231
L2_cache_bank[2]: Access = 4056, Miss = 270, Miss_rate = 0.067, Pending_hits = 426, Reservation_fails = 1420
L2_cache_bank[3]: Access = 3852, Miss = 268, Miss_rate = 0.070, Pending_hits = 420, Reservation_fails = 1058
L2_cache_bank[4]: Access = 4197, Miss = 270, Miss_rate = 0.064, Pending_hits = 442, Reservation_fails = 1303
L2_cache_bank[5]: Access = 3979, Miss = 269, Miss_rate = 0.068, Pending_hits = 435, Reservation_fails = 1115
L2_cache_bank[6]: Access = 4056, Miss = 270, Miss_rate = 0.067, Pending_hits = 426, Reservation_fails = 1296
L2_cache_bank[7]: Access = 3834, Miss = 268, Miss_rate = 0.070, Pending_hits = 420, Reservation_fails = 1296
L2_cache_bank[8]: Access = 4245, Miss = 270, Miss_rate = 0.064, Pending_hits = 425, Reservation_fails = 1188
L2_cache_bank[9]: Access = 3928, Miss = 268, Miss_rate = 0.068, Pending_hits = 420, Reservation_fails = 1111
L2_cache_bank[10]: Access = 4003, Miss = 269, Miss_rate = 0.067, Pending_hits = 423, Reservation_fails = 1271
L2_cache_bank[11]: Access = 3806, Miss = 268, Miss_rate = 0.070, Pending_hits = 420, Reservation_fails = 1156
L2_total_cache_accesses = 48201
L2_total_cache_misses = 3230
L2_total_cache_miss_rate = 0.0670
L2_total_cache_pending_hits = 5109
L2_total_cache_reservation_fails = 14882
L2_total_cache_breakdown:
	L2_cache_stats_breakdown[GLOBAL_ACC_R][HIT] = 1918
	L2_cache_stats_breakdown[GLOBAL_ACC_R][HIT_RESERVED] = 31
	L2_cache_stats_breakdown[GLOBAL_ACC_R][MISS] = 1537
	L2_cache_stats_breakdown[CONST_ACC_R][HIT] = 11
	L2_cache_stats_breakdown[CONST_ACC_R][HIT_RESERVED] = 3
	L2_cache_stats_breakdown[CONST_ACC_R][MISS] = 1
	L2_cache_stats_breakdown[CONST_ACC_R][RESERVATION_FAIL] = 109
	L2_cache_stats_breakdown[GLOBAL_ACC_W][HIT] = 18432
	L2_cache_stats_breakdown[GLOBAL_ACC_W][HIT_RESERVED] = 4608
	L2_cache_stats_breakdown[GLOBAL_ACC_W][MISS] = 1536
	L2_cache_stats_breakdown[GLOBAL_ACC_W][RESERVATION_FAIL] = 607
	L2_cache_stats_breakdown[INST_ACC_R][HIT] = 19501
	L2_cache_stats_breakdown[INST_ACC_R][HIT_RESERVED] = 467
	L2_cache_stats_breakdown[INST_ACC_R][MISS] = 156
	L2_cache_stats_breakdown[INST_ACC_R][RESERVATION_FAIL] = 14166
L2_cache_data_port_util = 0.024
L2_cache_fill_port_util = 0.003

icnt_total_pkts_mem_to_simt=142671
icnt_total_pkts_simt_to_mem=72777
LD_mem_lat_dist  0 0 0 0 0 0 0 0 0 0 0 0 0 0 0 0 0 0 0 0 0 0 0 0 0 0 0
ST_mem_lat_dist  0 0 0 0 0 0 0 0 0 0 0 0 0 0 0 0 0 0 0 0 0 0 0 0 0 0 0
----------------------------Interconnect-DETAILS--------------------------------
Class 0:
Packet latency average = 15.7643
	minimum = 6
	maximum = 228
Network latency average = 12.1742
	minimum = 6
	maximum = 186
Slowest packet = 7345
Flit latency average = 9.82366
	minimum = 6
	maximum = 185
Slowest flit = 21393
Fragmentation average = 0
	minimum = 0
	maximum = 0
Injected packet rate average = 0.00980415
	minimum = 0.00834484 (at node 7)
	maximum = 0.0116564 (at node 23)
Accepted packet rate average = 0.00980415
	minimum = 0.00834484 (at node 7)
	maximum = 0.0116564 (at node 23)
Injected flit rate average = 0.0219112
	minimum = 0.0125626 (at node 7)
	maximum = 0.0357875 (at node 23)
Accepted flit rate average= 0.0219112
	minimum = 0.0160746 (at node 26)
	maximum = 0.0274784 (at node 2)
Injected packet length average = 2.23489
Accepted packet length average = 2.23489
Total in-flight flits = 0 (0 measured)
====== Overall Traffic Statistics ======
====== Traffic class 0 ======
Packet latency average = 15.7643 (1 samples)
	minimum = 6 (1 samples)
	maximum = 228 (1 samples)
Network latency average = 12.1742 (1 samples)
	minimum = 6 (1 samples)
	maximum = 186 (1 samples)
Flit latency average = 9.82366 (1 samples)
	minimum = 6 (1 samples)
	maximum = 185 (1 samples)
Fragmentation average = 0 (1 samples)
	minimum = 0 (1 samples)
	maximum = 0 (1 samples)
Injected packet rate average = 0.00980415 (1 samples)
	minimum = 0.00834484 (1 samples)
	maximum = 0.0116564 (1 samples)
Accepted packet rate average = 0.00980415 (1 samples)
	minimum = 0.00834484 (1 samples)
	maximum = 0.0116564 (1 samples)
Injected flit rate average = 0.0219112 (1 samples)
	minimum = 0.0125626 (1 samples)
	maximum = 0.0357875 (1 samples)
Accepted flit rate average = 0.0219112 (1 samples)
	minimum = 0.0160746 (1 samples)
	maximum = 0.0274784 (1 samples)
Injected packet size average = 2.23489 (1 samples)
Accepted packet size average = 2.23489 (1 samples)
Hops average = 1 (1 samples)
----------------------------END-of-Interconnect-DETAILS-------------------------


gpgpu_simulation_time = 0 days, 0 hrs, 5 min, 56 sec (356 sec)
gpgpu_simulation_rate = 353176 (inst/sec)
gpgpu_simulation_rate = 1022 (cycle/sec)
GPGPU-Sim: synchronize waiting for inactive GPU simulation
GPGPU-Sim API: Stream Manager State
GPGPU-Sim: detected inactive GPU simulation thread

== GPU Timing ==
GPU init                 : 0.009000
Host input buffer alloc  : 0.022000
-----
Host output buffer alloc : 0.004000
GPU memory alloc         : 0.003000
Data copy in             : 6.680000
Kernel execution         : 355534.562500
Data copy out            : 6.675000
Last hasing stage        : 0.000000
GPU Proc. Time (gpu init and input alloc are not included):  355547.906250 

== CPU Execution Context ==
Threads       : 128
Blocks        : 384
Total Threads : 49152
Total Size    : 196656
Chunk Size    : 52
Padding       : 0

CPU Processing time(ms):    20.156000 

Output size: 196608
Test PASSED
CPU GPU
FD FD
DD DD
2 2
F9 F9
