

        *** GPGPU-Sim Simulator Version 3.2.2  [build 0] ***


GPGPU-Sim PTX: simulation mode 0 (can change with PTX_SIM_MODE_FUNC environment variable:
               1=functional simulation only, 0=detailed performance simulator)
GPGPU-Sim: Configuration options:

-network_mode                           1 # Interconnection network mode
-inter_config_file   config_fermi_islip.icnt # Interconnection network config file
-gpgpu_ptx_use_cuobjdump                    1 # Use cuobjdump to extract ptx and sass from binaries
-gpgpu_experimental_lib_support                    0 # Try to extract code from cuda libraries [Broken because of unknown cudaGetExportTable]
-gpgpu_ptx_convert_to_ptxplus                    0 # Convert SASS (native ISA) to ptxplus and run ptxplus
-gpgpu_ptx_force_max_capability                   20 # Force maximum compute capability
-gpgpu_ptx_inst_debug_to_file                    0 # Dump executed instructions' debug information to file
-gpgpu_ptx_inst_debug_file       inst_debug.txt # Executed instructions' debug output file
-gpgpu_ptx_inst_debug_thread_uid                    1 # Thread UID for executed instructions' debug output
-gpgpu_simd_model                       1 # 1 = post-dominator
-gpgpu_shader_core_pipeline              1536:32 # shader core pipeline config, i.e., {<nthread>:<warpsize>}
-gpgpu_tex_cache:l1  4:128:24,L:R:m:N:L,F:128:4,128:2 # per-shader L1 texture cache  (READ-ONLY) config  {<nsets>:<bsize>:<assoc>,<rep>:<wr>:<alloc>:<wr_alloc>,<mshr>:<N>:<merge>,<mq>:<rf>}
-gpgpu_const_cache:l1 64:64:2,L:R:f:N:L,A:2:32,4 # per-shader L1 constant memory cache  (READ-ONLY) config  {<nsets>:<bsize>:<assoc>,<rep>:<wr>:<alloc>:<wr_alloc>,<mshr>:<N>:<merge>,<mq>} 
-gpgpu_cache:il1     4:128:4,L:R:f:N:L,A:2:32,4 # shader L1 instruction cache config  {<nsets>:<bsize>:<assoc>,<rep>:<wr>:<alloc>:<wr_alloc>,<mshr>:<N>:<merge>,<mq>} 
-gpgpu_cache:dl1     64:128:1,L:L:m:N:H,A:32:8,8 # per-shader L1 data cache config  {<nsets>:<bsize>:<assoc>,<rep>:<wr>:<alloc>:<wr_alloc>,<mshr>:<N>:<merge>,<mq> | none}
-gpgpu_cache:dl1PrefL1                 none # per-shader L1 data cache config  {<nsets>:<bsize>:<assoc>,<rep>:<wr>:<alloc>:<wr_alloc>,<mshr>:<N>:<merge>,<mq> | none}
-gpgpu_cache:dl1PreShared                 none # per-shader L1 data cache config  {<nsets>:<bsize>:<assoc>,<rep>:<wr>:<alloc>:<wr_alloc>,<mshr>:<N>:<merge>,<mq> | none}
-gmem_skip_L1D                          0 # global memory access skip L1D cache (implements -Xptxas -dlcm=cg, default=no skip)
-gpgpu_perfect_mem                      0 # enable perfect memory mode (no cache miss)
-n_regfile_gating_group                    4 # group of lanes that should be read/written together)
-gpgpu_clock_gated_reg_file                    0 # enable clock gated reg file for power calculations
-gpgpu_clock_gated_lanes                    0 # enable clock gated lanes for power calculations
-gpgpu_shader_registers                32768 # Number of registers per shader core. Limits number of concurrent CTAs. (default 8192)
-gpgpu_shader_cta                       8 # Maximum number of concurrent CTAs in shader (default 8)
-gpgpu_num_cta_barriers                   16 # Maximum number of named barriers per CTA (default 16)
-gpgpu_n_clusters                      15 # number of processing clusters
-gpgpu_n_cores_per_cluster                    1 # number of simd cores per cluster
-gpgpu_n_cluster_ejection_buffer_size                    8 # number of packets in ejection buffer
-gpgpu_n_ldst_response_buffer_size                    2 # number of response packets in ld/st unit ejection buffer
-gpgpu_shmem_size                   16384 # Size of shared memory per shader core (default 16kB)
-gpgpu_shmem_size                   49152 # Size of shared memory per shader core (default 16kB)
-gpgpu_shmem_size_PrefL1                16384 # Size of shared memory per shader core (default 16kB)
-gpgpu_shmem_size_PrefShared                16384 # Size of shared memory per shader core (default 16kB)
-gpgpu_shmem_num_banks                   32 # Number of banks in the shared memory in each shader core (default 16)
-gpgpu_shmem_limited_broadcast                    0 # Limit shared memory to do one broadcast per cycle (default on)
-gpgpu_shmem_warp_parts                    1 # Number of portions a warp is divided into for shared memory bank conflict check 
-gpgpu_warpdistro_shader                   -1 # Specify which shader core to collect the warp size distribution from
-gpgpu_warp_issue_shader                    0 # Specify which shader core to collect the warp issue distribution from
-gpgpu_local_mem_map                    1 # Mapping from local memory space address to simulated GPU physical address space (default = enabled)
-gpgpu_num_reg_banks                   16 # Number of register banks (default = 8)
-gpgpu_reg_bank_use_warp_id                    0 # Use warp ID in mapping registers to banks (default = off)
-gpgpu_operand_collector_num_units_sp                    6 # number of collector units (default = 4)
-gpgpu_operand_collector_num_units_sfu                    8 # number of collector units (default = 4)
-gpgpu_operand_collector_num_units_mem                    2 # number of collector units (default = 2)
-gpgpu_operand_collector_num_units_gen                    0 # number of collector units (default = 0)
-gpgpu_operand_collector_num_in_ports_sp                    2 # number of collector unit in ports (default = 1)
-gpgpu_operand_collector_num_in_ports_sfu                    1 # number of collector unit in ports (default = 1)
-gpgpu_operand_collector_num_in_ports_mem                    1 # number of collector unit in ports (default = 1)
-gpgpu_operand_collector_num_in_ports_gen                    0 # number of collector unit in ports (default = 0)
-gpgpu_operand_collector_num_out_ports_sp                    2 # number of collector unit in ports (default = 1)
-gpgpu_operand_collector_num_out_ports_sfu                    1 # number of collector unit in ports (default = 1)
-gpgpu_operand_collector_num_out_ports_mem                    1 # number of collector unit in ports (default = 1)
-gpgpu_operand_collector_num_out_ports_gen                    0 # number of collector unit in ports (default = 0)
-gpgpu_coalesce_arch                   13 # Coalescing arch (default = 13, anything else is off for now)
-gpgpu_num_sched_per_core                    2 # Number of warp schedulers per core
-gpgpu_max_insn_issue_per_warp                    1 # Max number of instructions that can be issued per warp in one cycle by scheduler
-gpgpu_simt_core_sim_order                    1 # Select the simulation order of cores in a cluster (0=Fix, 1=Round-Robin)
-gpgpu_pipeline_widths        2,1,1,2,1,1,2 # Pipeline widths ID_OC_SP,ID_OC_SFU,ID_OC_MEM,OC_EX_SP,OC_EX_SFU,OC_EX_MEM,EX_WB
-gpgpu_num_sp_units                     2 # Number of SP units (default=1)
-gpgpu_num_sfu_units                    1 # Number of SF units (default=1)
-gpgpu_num_mem_units                    1 # Number if ldst units (default=1) WARNING: not hooked up to anything
-gpgpu_scheduler                      gto # Scheduler configuration: < lrr | gto | two_level_active > If two_level_active:<num_active_warps>:<inner_prioritization>:<outer_prioritization>For complete list of prioritization values see shader.h enum scheduler_prioritization_typeDefault: gto
-gpgpu_dram_scheduler                    1 # 0 = fifo, 1 = FR-FCFS (defaul)
-gpgpu_dram_partition_queues              8:8:8:8 # i2$:$2d:d2$:$2i
-l2_ideal                               0 # Use a ideal L2 cache that always hit
-gpgpu_cache:dl2     64:128:8,L:B:m:W:L,A:32:4,4:0,32 # unified banked L2 data cache config  {<nsets>:<bsize>:<assoc>,<rep>:<wr>:<alloc>:<wr_alloc>,<mshr>:<N>:<merge>,<mq>}
-gpgpu_cache:dl2_texture_only                    0 # L2 cache used for texture only
-gpgpu_n_mem                            6 # number of memory modules (e.g. memory controllers) in gpu
-gpgpu_n_sub_partition_per_mchannel                    2 # number of memory subpartition in each memory module
-gpgpu_n_mem_per_ctrlr                    2 # number of memory chips per memory controller
-gpgpu_memlatency_stat                   14 # track and display latency statistics 0x2 enables MC, 0x4 enables queue logs
-gpgpu_frfcfs_dram_sched_queue_size                   16 # 0 = unlimited (default); # entries per chip
-gpgpu_dram_return_queue_size                  116 # 0 = unlimited (default); # entries per chip
-gpgpu_dram_buswidth                    4 # default = 4 bytes (8 bytes per cycle at DDR)
-gpgpu_dram_burst_length                    8 # Burst length of each DRAM request (default = 4 data bus cycle)
-dram_data_command_freq_ratio                    4 # Frequency ratio between DRAM data bus and command bus (default = 2 times, i.e. DDR)
-gpgpu_dram_timing_opt nbk=16:CCD=2:RRD=6:RCD=12:RAS=28:RP=12:RC=40: CL=12:WL=4:CDLR=5:WR=12:nbkgrp=4:CCDL=3:RTPL=2 # DRAM timing parameters = {nbk:tCCD:tRRD:tRCD:tRAS:tRP:tRC:CL:WL:tCDLR:tWR:nbkgrp:tCCDL:tRTPL}
-rop_latency                          120 # ROP queue latency (default 85)
-dram_latency                         100 # DRAM latency (default 30)
-gpgpu_mem_addr_mapping dramid@8;00000000.00000000.00000000.00000000.0000RRRR.RRRRRRRR.BBBCCCCB.CCSSSSSS # mapping memory address to dram model {dramid@<start bit>;<memory address map>}
-gpgpu_mem_addr_test                    0 # run sweep test to check address mapping for aliased address
-gpgpu_mem_address_mask                    1 # 0 = old addressing mask, 1 = new addressing mask, 2 = new add. mask + flipped bank sel and chip sel bits
-gpuwattch_xml_file  gpuwattch_gtx480.xml # GPUWattch XML file
-power_simulation_enabled                    1 # Turn on power simulator (1=On, 0=Off)
-power_per_cycle_dump                    0 # Dump detailed power output each cycle
-power_trace_enabled                    0 # produce a file for the power trace (1=On, 0=Off)
-power_trace_zlevel                     6 # Compression level of the power trace output log (0=no comp, 9=highest)
-steady_power_levels_enabled                    0 # produce a file for the steady power levels (1=On, 0=Off)
-steady_state_definition                  8:4 # allowed deviation:number of samples
-gpgpu_max_cycle                        0 # terminates gpu simulation early (0 = no limit)
-gpgpu_max_insn                         0 # terminates gpu simulation early (0 = no limit)
-gpgpu_max_cta                          0 # terminates gpu simulation early (0 = no limit)
-gpgpu_runtime_stat                   500 # display runtime statistics such as dram utilization {<freq>:<flag>}
-liveness_message_freq                    1 # Minimum number of seconds between simulation liveness messages (0 = always print)
-gpgpu_flush_l1_cache                    0 # Flush L1 cache at the end of each kernel call
-gpgpu_flush_l2_cache                    0 # Flush L2 cache at the end of each kernel call
-gpgpu_deadlock_detect                    1 # Stop the simulation at deadlock (1=on (default), 0=off)
-gpgpu_ptx_instruction_classification                    0 # if enabled will classify ptx instruction types per kernel (Max 255 kernels now)
-gpgpu_ptx_sim_mode                     0 # Select between Performance (default) or Functional simulation (1)
-gpgpu_clock_domains 700.0:700.0:700.0:924.0 # Clock Domain Frequencies in MhZ {<Core Clock>:<ICNT Clock>:<L2 Clock>:<DRAM Clock>}
-gpgpu_max_concurrent_kernel                    8 # maximum kernels that can run concurrently on GPU
-gpgpu_cflog_interval                    0 # Interval between each snapshot in control flow logger
-visualizer_enabled                     0 # Turn on visualizer output (1=On, 0=Off)
-visualizer_outputfile                 NULL # Specifies the output log file for visualizer
-visualizer_zlevel                      6 # Compression level of the visualizer output log (0=no comp, 9=highest)
-trace_enabled                          0 # Turn on traces
-trace_components                    none # comma seperated list of traces to enable. Complete list found in trace_streams.tup. Default none
-trace_sampling_core                    0 # The core which is printed using CORE_DPRINTF. Default 0
-trace_sampling_memory_partition                   -1 # The memory partition which is printed using MEMPART_DPRINTF. Default -1 (i.e. all)
-enable_ptx_file_line_stats                    1 # Turn on PTX source line statistic profiling. (1 = On)
-ptx_line_stats_filename gpgpu_inst_stats.txt # Output file for PTX source line statistics.
-save_embedded_ptx                      0 # saves ptx files embedded in binary as <n>.ptx
-keep                                   0 # keep intermediate files created by GPGPU-Sim when interfacing with external programs
-gpgpu_ptx_save_converted_ptxplus                    0 # Saved converted ptxplus to a file
-ptx_opcode_latency_int         4,13,4,5,145 # Opcode latencies for integers <ADD,MAX,MUL,MAD,DIV>Default 1,1,19,25,145
-ptx_opcode_latency_fp          4,13,4,5,39 # Opcode latencies for single precision floating points <ADD,MAX,MUL,MAD,DIV>Default 1,1,1,1,30
-ptx_opcode_latency_dp         8,19,8,8,330 # Opcode latencies for double precision floating points <ADD,MAX,MUL,MAD,DIV>Default 8,8,8,8,335
-ptx_opcode_initiation_int            1,2,2,1,8 # Opcode initiation intervals for integers <ADD,MAX,MUL,MAD,DIV>Default 1,1,4,4,32
-ptx_opcode_initiation_fp            1,2,1,1,4 # Opcode initiation intervals for single precision floating points <ADD,MAX,MUL,MAD,DIV>Default 1,1,1,1,5
-ptx_opcode_initiation_dp         8,16,8,8,130 # Opcode initiation intervals for double precision floating points <ADD,MAX,MUL,MAD,DIV>Default 8,8,8,8,130
DRAM Timing Options:
nbk                                    16 # number of banks
CCD                                     2 # column to column delay
RRD                                     6 # minimal delay between activation of rows in different banks
RCD                                    12 # row to column delay
RAS                                    28 # time needed to activate row
RP                                     12 # time needed to precharge (deactivate) row
RC                                     40 # row cycle time
CDLR                                    5 # switching from write to read (changes tWTR)
WR                                     12 # last data-in to row precharge
CL                                     12 # CAS latency
WL                                      4 # Write latency
nbkgrp                                  4 # number of bank groups
CCDL                                    3 # column to column delay between accesses to different bank groups
RTPL                                    2 # read to precharge delay between accesses to different bank groups
Total number of memory sub partition = 12
addr_dec_mask[CHIP]  = 0000000000000000 	high:64 low:0
addr_dec_mask[BK]    = 000000000000e100 	high:16 low:8
addr_dec_mask[ROW]   = 000000000fff0000 	high:28 low:16
addr_dec_mask[COL]   = 0000000000001eff 	high:13 low:0
addr_dec_mask[BURST] = 000000000000003f 	high:6 low:0
sub_partition_id_mask = 0000000000000100
GPGPU-Sim uArch: clock freqs: 700000000.000000:700000000.000000:700000000.000000:924000000.000000
GPGPU-Sim uArch: clock periods: 0.00000000142857142857:0.00000000142857142857:0.00000000142857142857:0.00000000108225108225
*** Initializing Memory Statistics ***
GPGPU-Sim uArch: interconnect node map (shaderID+MemID to icntID)
GPGPU-Sim uArch: Memory nodes ID start from index: 15
GPGPU-Sim uArch:    0   1   2   3   4
GPGPU-Sim uArch:    5   6   7   8   9
GPGPU-Sim uArch:   10  11  12  13  14
GPGPU-Sim uArch:   15  16  17  18  19
GPGPU-Sim uArch:   20  21  22  23  24
GPGPU-Sim uArch:   25  26
GPGPU-Sim uArch: interconnect node reverse map (icntID to shaderID+MemID)
GPGPU-Sim uArch: Memory nodes start from ID: 15
GPGPU-Sim uArch:    0   1   2   3   4
GPGPU-Sim uArch:    5   6   7   8   9
GPGPU-Sim uArch:   10  11  12  13  14
GPGPU-Sim uArch:   15  16  17  18  19
GPGPU-Sim uArch:   20  21  22  23  24
GPGPU-Sim uArch:   25  26
ee89055bc58e180b7b05d1332bfe7767  /home/scratch/adwait/applications/benchmarks/CUDA/LPS/gpgpu_ptx_sim__LPS
GPGPU-Sim uArch: performance model initialization complete.
GPGPU-Sim PTX: __cudaRegisterFatBinary, fat_cubin_handle = 1, filename=laplace3d.cu
self exe links to: /home/scratch/adwait/applications/benchmarks/CUDA/LPS/gpgpu_ptx_sim__LPS
Running md5sum using "md5sum /home/scratch/adwait/applications/benchmarks/CUDA/LPS/gpgpu_ptx_sim__LPS "
Running cuobjdump using "$CUDA_INSTALL_PATH/bin/cuobjdump -ptx -elf -sass /home/scratch/adwait/applications/benchmarks/CUDA/LPS/gpgpu_ptx_sim__LPS > _cuobjdump_complete_output_Io6Hif"
Parsing file _cuobjdump_complete_output_Io6Hif
######### cuobjdump parser ########
## Adding new section ELF
Adding arch: sm_20
Adding identifier: laplace3d.cu
## Adding new section PTX
Adding ptx filename: _cuobjdump_1.ptx
Adding arch: sm_20
Adding identifier: laplace3d.cu
Done parsing!!!
GPGPU-Sim PTX: __cudaRegisterFunction _Z13GPU_laplace3diiiiPfS_ : hostFun 0x0x40566f, fat_cubin_handle = 1
GPGPU-Sim PTX: allocating shared region for "__cuda___cuda_local_var_33528_33_non_const_u132" from 0x0 to 0x990 (shared memory space)
GPGPU-Sim PTX: instruction assembly for function '_Z13GPU_laplace3diiiiPfS_'...   done.
GPGPU-Sim PTX: finding reconvergence points for '_Z13GPU_laplace3diiiiPfS_'...
GPGPU-Sim PTX: Finding dominators for '_Z13GPU_laplace3diiiiPfS_'...
GPGPU-Sim PTX: Finding immediate dominators for '_Z13GPU_laplace3diiiiPfS_'...
GPGPU-Sim PTX: Finding postdominators for '_Z13GPU_laplace3diiiiPfS_'...
GPGPU-Sim PTX: Finding immediate postdominators for '_Z13GPU_laplace3diiiiPfS_'...
GPGPU-Sim PTX: pre-decoding instructions for '_Z13GPU_laplace3diiiiPfS_'...
GPGPU-Sim PTX: reconvergence points for _Z13GPU_laplace3diiiiPfS_...
GPGPU-Sim PTX:  1 (potential) branch divergence @  PC=0x060 (_1.ptx:82) @!%p1 bra $Lt_0_14338;
GPGPU-Sim PTX:    immediate post dominator      @  PC=0x230 (_1.ptx:154) add.s32 %r57, %r37, %r12;
GPGPU-Sim PTX:  2 (potential) branch divergence @  PC=0x080 (_1.ptx:86) @%p2 bra $Lt_0_14850;
GPGPU-Sim PTX:    immediate post dominator      @  PC=0x120 (_1.ptx:113) add.s32 %r30, %r16, 1;
GPGPU-Sim PTX:  3 (potential) branch divergence @  PC=0x0a0 (_1.ptx:92) bra.uni $Lt_0_14594;
GPGPU-Sim PTX:    immediate post dominator      @  PC=0x120 (_1.ptx:113) add.s32 %r30, %r16, 1;
GPGPU-Sim PTX:  4 (potential) branch divergence @  PC=0x200 (_1.ptx:145) bra.uni $Lt_0_14082;
GPGPU-Sim PTX:    immediate post dominator      @  PC=0x230 (_1.ptx:154) add.s32 %r57, %r37, %r12;
GPGPU-Sim PTX:  5 (potential) branch divergence @  PC=0x290 (_1.ptx:166) @%p5 bra $Lt_0_15106;
GPGPU-Sim PTX:    immediate post dominator      @  PC=0x308 (_1.ptx:183) mov.u64 %rd1, __cuda___cuda_local_var_33528_33_non_const_u132;
GPGPU-Sim PTX:  6 (potential) branch divergence @  PC=0x320 (_1.ptx:186) @!%p6 bra $Lt_0_15618;
GPGPU-Sim PTX:    immediate post dominator      @  PC=0x380 (_1.ptx:200) ld.param.s32 %r73, [__cudaparm__Z13GPU_laplace3diiiiPfS__NZ];
GPGPU-Sim PTX:  7 (potential) branch divergence @  PC=0x398 (_1.ptx:203) @%p7 bra $Lt_0_16130;
GPGPU-Sim PTX:    immediate post dominator      @  PC=0x6d8 (_1.ptx:335) exit;
GPGPU-Sim PTX:  8 (potential) branch divergence @  PC=0x408 (_1.ptx:219) @%p8 bra $Lt_0_17410;
GPGPU-Sim PTX:    immediate post dominator      @  PC=0x4a0 (_1.ptx:245) @!%p6 bra $Lt_0_18434;
GPGPU-Sim PTX:  9 (potential) branch divergence @  PC=0x468 (_1.ptx:235) @%p9 bra $Lt_0_17410;
GPGPU-Sim PTX:    immediate post dominator      @  PC=0x4a0 (_1.ptx:245) @!%p6 bra $Lt_0_18434;
GPGPU-Sim PTX: 10 (potential) branch divergence @  PC=0x4a0 (_1.ptx:245) @!%p6 bra $Lt_0_18434;
GPGPU-Sim PTX:    immediate post dominator      @  PC=0x548 (_1.ptx:273) bar.sync 0;
GPGPU-Sim PTX: 11 (potential) branch divergence @  PC=0x510 (_1.ptx:262) @%p10 bra $Lt_0_18434;
GPGPU-Sim PTX:    immediate post dominator      @  PC=0x548 (_1.ptx:273) bar.sync 0;
GPGPU-Sim PTX: 12 (potential) branch divergence @  PC=0x560 (_1.ptx:276) @%p11 bra $Lt_0_18946;
GPGPU-Sim PTX:    immediate post dominator      @  PC=0x6b8 (_1.ptx:329) bar.sync 0;
GPGPU-Sim PTX: 13 (potential) branch divergence @  PC=0x578 (_1.ptx:280) @%p12 bra $Lt_0_20738;
GPGPU-Sim PTX:    immediate post dominator      @  PC=0x688 (_1.ptx:321) ld.param.u64 %rd35, [__cudaparm__Z13GPU_laplace3diiiiPfS__d_u2];
GPGPU-Sim PTX: 14 (potential) branch divergence @  PC=0x588 (_1.ptx:282) @%p13 bra $Lt_0_20738;
GPGPU-Sim PTX:    immediate post dominator      @  PC=0x688 (_1.ptx:321) ld.param.u64 %rd35, [__cudaparm__Z13GPU_laplace3diiiiPfS__d_u2];
GPGPU-Sim PTX: 15 (potential) branch divergence @  PC=0x5a0 (_1.ptx:285) @%p14 bra $Lt_0_20738;
GPGPU-Sim PTX:    immediate post dominator      @  PC=0x688 (_1.ptx:321) ld.param.u64 %rd35, [__cudaparm__Z13GPU_laplace3diiiiPfS__d_u2];
GPGPU-Sim PTX: 16 (potential) branch divergence @  PC=0x5b0 (_1.ptx:287) @%p15 bra $Lt_0_20738;
GPGPU-Sim PTX:    immediate post dominator      @  PC=0x688 (_1.ptx:321) ld.param.u64 %rd35, [__cudaparm__Z13GPU_laplace3diiiiPfS__d_u2];
GPGPU-Sim PTX: 17 (potential) branch divergence @  PC=0x5c8 (_1.ptx:290) @%p16 bra $Lt_0_20738;
GPGPU-Sim PTX:    immediate post dominator      @  PC=0x688 (_1.ptx:321) ld.param.u64 %rd35, [__cudaparm__Z13GPU_laplace3diiiiPfS__d_u2];
GPGPU-Sim PTX: 18 (potential) branch divergence @  PC=0x5d8 (_1.ptx:292) @%p17 bra $L_0_12546;
GPGPU-Sim PTX:    immediate post dominator      @  PC=0x688 (_1.ptx:321) ld.param.u64 %rd35, [__cudaparm__Z13GPU_laplace3diiiiPfS__d_u2];
GPGPU-Sim PTX: 19 (potential) branch divergence @  PC=0x600 (_1.ptx:300) bra.uni $L_0_12290;
GPGPU-Sim PTX:    immediate post dominator      @  PC=0x688 (_1.ptx:321) ld.param.u64 %rd35, [__cudaparm__Z13GPU_laplace3diiiiPfS__d_u2];
GPGPU-Sim PTX: 20 (potential) branch divergence @  PC=0x6d0 (_1.ptx:332) @%p18 bra $Lt_0_16642;
GPGPU-Sim PTX:    immediate post dominator      @  PC=0x6d8 (_1.ptx:335) exit;
GPGPU-Sim PTX: ... end of reconvergence points for _Z13GPU_laplace3diiiiPfS_
GPGPU-Sim PTX: ... done pre-decoding instructions for '_Z13GPU_laplace3diiiiPfS_'.
GPGPU-Sim PTX: finished parsing EMBEDDED .ptx file _1.ptx
Adding _cuobjdump_1.ptx with cubin handle 1
GPGPU-Sim PTX: extracting embedded .ptx to temporary file "_ptx_OC04Tu"
Running: cat _ptx_OC04Tu | sed 's/.version 1.5/.version 1.4/' | sed 's/, texmode_independent//' | sed 's/\(\.extern \.const\[1\] .b8 \w\+\)\[\]/\1\[1\]/' | sed 's/const\[.\]/const\[0\]/g' > _ptx2_wR3AxK
GPGPU-Sim PTX: generating ptxinfo using "$CUDA_INSTALL_PATH/bin/ptxas --gpu-name=sm_20 -v _ptx2_wR3AxK --output-file  /dev/null 2> _ptx_OC04Tuinfo"
GPGPU-Sim PTX: Kernel '_Z13GPU_laplace3diiiiPfS_' : regs=17, lmem=0, smem=2448, cmem=64
GPGPU-Sim PTX: removing ptxinfo using "rm -f _ptx_OC04Tu _ptx2_wR3AxK _ptx_OC04Tuinfo"
GPGPU-Sim PTX: loading globals with explicit initializers... 
GPGPU-Sim PTX: finished loading globals (0 bytes total).
GPGPU-Sim PTX: loading constants with explicit initializers...  done.

Grid dimensions: 100 x 100 x 100
GPGPU-Sim PTX: cudaMallocPitch (width = 400)
GPGPU-Sim PTX: cudaMallocPitch (width = 400)
GPGPU-Sim: synchronize waiting for inactive GPU simulation
GPGPU-Sim API: Stream Manager State
GPGPU-Sim: detected inactive GPU simulation thread

Copy u1 to device: 155.386002 (ms) 

 dimGrid  = 4 25 1 
 dimBlock = 32 4 1 
GPGPU-Sim: synchronize waiting for inactive GPU simulation
GPGPU-Sim API: Stream Manager State
GPGPU-Sim: detected inactive GPU simulation thread

GPGPU-Sim PTX: cudaLaunch for 0x0x40566f (mode=performance simulation) on stream 0
GPGPU-Sim PTX: pushing kernel '_Z13GPU_laplace3diiiiPfS_' to stream 0, gridDim= (4,25,1) blockDim = (32,4,1) 
kernel '_Z13GPU_laplace3diiiiPfS_' transfer to GPU hardware scheduler
GPGPU-Sim uArch: Shader 1 bind to kernel 1 '_Z13GPU_laplace3diiiiPfS_'
GPGPU-Sim uArch: CTA/core = 8, limited by: cta_limit
GPGPU-Sim uArch: core:  1, cta: 0 initialized @(1,0)
GPGPU-Sim uArch: Shader 2 bind to kernel 1 '_Z13GPU_laplace3diiiiPfS_'
GPGPU-Sim uArch: core:  2, cta: 0 initialized @(1,0)
GPGPU-Sim uArch: Shader 3 bind to kernel 1 '_Z13GPU_laplace3diiiiPfS_'
GPGPU-Sim uArch: core:  3, cta: 0 initialized @(1,0)
GPGPU-Sim uArch: Shader 4 bind to kernel 1 '_Z13GPU_laplace3diiiiPfS_'
GPGPU-Sim uArch: core:  4, cta: 0 initialized @(1,0)
GPGPU-Sim uArch: Shader 5 bind to kernel 1 '_Z13GPU_laplace3diiiiPfS_'
GPGPU-Sim uArch: core:  5, cta: 0 initialized @(1,0)
GPGPU-Sim uArch: Shader 6 bind to kernel 1 '_Z13GPU_laplace3diiiiPfS_'
GPGPU-Sim uArch: core:  6, cta: 0 initialized @(1,0)
GPGPU-Sim uArch: Shader 7 bind to kernel 1 '_Z13GPU_laplace3diiiiPfS_'
GPGPU-Sim uArch: core:  7, cta: 0 initialized @(1,0)
GPGPU-Sim uArch: Shader 8 bind to kernel 1 '_Z13GPU_laplace3diiiiPfS_'
GPGPU-Sim uArch: core:  8, cta: 0 initialized @(1,0)
GPGPU-Sim uArch: Shader 9 bind to kernel 1 '_Z13GPU_laplace3diiiiPfS_'
GPGPU-Sim uArch: core:  9, cta: 0 initialized @(1,0)
GPGPU-Sim uArch: Shader 10 bind to kernel 1 '_Z13GPU_laplace3diiiiPfS_'
GPGPU-Sim uArch: core: 10, cta: 0 initialized @(1,0)
GPGPU-Sim uArch: Shader 11 bind to kernel 1 '_Z13GPU_laplace3diiiiPfS_'
GPGPU-Sim uArch: core: 11, cta: 0 initialized @(1,0)
GPGPU-Sim uArch: Shader 12 bind to kernel 1 '_Z13GPU_laplace3diiiiPfS_'
GPGPU-Sim uArch: core: 12, cta: 0 initialized @(1,0)
GPGPU-Sim uArch: Shader 13 bind to kernel 1 '_Z13GPU_laplace3diiiiPfS_'
GPGPU-Sim uArch: core: 13, cta: 0 initialized @(1,0)
GPGPU-Sim uArch: Shader 14 bind to kernel 1 '_Z13GPU_laplace3diiiiPfS_'
GPGPU-Sim uArch: core: 14, cta: 0 initialized @(1,0)
GPGPU-Sim uArch: Shader 0 bind to kernel 1 '_Z13GPU_laplace3diiiiPfS_'
GPGPU-Sim uArch: core:  0, cta: 0 initialized @(1,0)
GPGPU-Sim uArch: core:  1, cta: 1 initialized @(2,0)
GPGPU-Sim uArch: core:  2, cta: 1 initialized @(2,0)
GPGPU-Sim uArch: core:  3, cta: 1 initialized @(2,0)
GPGPU-Sim uArch: core:  4, cta: 1 initialized @(2,0)
GPGPU-Sim uArch: core:  5, cta: 1 initialized @(2,0)
GPGPU-Sim uArch: core:  6, cta: 1 initialized @(2,0)
GPGPU-Sim uArch: core:  7, cta: 1 initialized @(2,0)
GPGPU-Sim uArch: core:  8, cta: 1 initialized @(2,0)
GPGPU-Sim uArch: core:  9, cta: 1 initialized @(2,0)
GPGPU-Sim uArch: core: 10, cta: 1 initialized @(2,0)
GPGPU-Sim uArch: core: 11, cta: 1 initialized @(2,0)
GPGPU-Sim uArch: core: 12, cta: 1 initialized @(2,0)
GPGPU-Sim uArch: core: 13, cta: 1 initialized @(2,0)
GPGPU-Sim uArch: core: 14, cta: 1 initialized @(2,0)
GPGPU-Sim uArch: core:  0, cta: 1 initialized @(2,0)
GPGPU-Sim uArch: core:  1, cta: 2 initialized @(3,0)
GPGPU-Sim uArch: core:  2, cta: 2 initialized @(3,0)
GPGPU-Sim uArch: core:  3, cta: 2 initialized @(3,0)
GPGPU-Sim uArch: core:  4, cta: 2 initialized @(3,0)
GPGPU-Sim uArch: core:  5, cta: 2 initialized @(3,0)
GPGPU-Sim uArch: core:  6, cta: 2 initialized @(3,0)
GPGPU-Sim uArch: core:  7, cta: 2 initialized @(3,0)
GPGPU-Sim uArch: core:  8, cta: 2 initialized @(3,0)
GPGPU-Sim uArch: core:  9, cta: 2 initialized @(3,0)
GPGPU-Sim uArch: core: 10, cta: 2 initialized @(3,0)
GPGPU-Sim uArch: core: 11, cta: 2 initialized @(3,0)
GPGPU-Sim uArch: core: 12, cta: 2 initialized @(3,0)
GPGPU-Sim uArch: core: 13, cta: 2 initialized @(3,0)
GPGPU-Sim uArch: core: 14, cta: 2 initialized @(3,0)
GPGPU-Sim uArch: core:  0, cta: 2 initialized @(3,0)
GPGPU-Sim uArch: core:  1, cta: 3 initialized @(4,0)
GPGPU-Sim uArch: core:  2, cta: 3 initialized @(4,0)
GPGPU-Sim uArch: core:  3, cta: 3 initialized @(4,0)
GPGPU-Sim uArch: core:  4, cta: 3 initialized @(4,0)
GPGPU-Sim uArch: core:  5, cta: 3 initialized @(4,0)
GPGPU-Sim uArch: core:  6, cta: 3 initialized @(4,0)
GPGPU-Sim uArch: core:  7, cta: 3 initialized @(4,0)
GPGPU-Sim uArch: core:  8, cta: 3 initialized @(4,0)
GPGPU-Sim uArch: core:  9, cta: 3 initialized @(4,0)
GPGPU-Sim uArch: core: 10, cta: 3 initialized @(4,0)
GPGPU-Sim uArch: core: 11, cta: 3 initialized @(4,0)
GPGPU-Sim uArch: core: 12, cta: 3 initialized @(4,0)
GPGPU-Sim uArch: core: 13, cta: 3 initialized @(4,0)
GPGPU-Sim uArch: core: 14, cta: 3 initialized @(4,0)
GPGPU-Sim uArch: core:  0, cta: 3 initialized @(4,0)
GPGPU-Sim uArch: core:  1, cta: 4 initialized @(5,0)
GPGPU-Sim uArch: core:  2, cta: 4 initialized @(5,0)
GPGPU-Sim uArch: core:  3, cta: 4 initialized @(5,0)
GPGPU-Sim uArch: core:  4, cta: 4 initialized @(5,0)
GPGPU-Sim uArch: core:  5, cta: 4 initialized @(5,0)
GPGPU-Sim uArch: core:  6, cta: 4 initialized @(5,0)
GPGPU-Sim uArch: core:  7, cta: 4 initialized @(5,0)
GPGPU-Sim uArch: core:  8, cta: 4 initialized @(5,0)
GPGPU-Sim uArch: core:  9, cta: 4 initialized @(5,0)
GPGPU-Sim uArch: core: 10, cta: 4 initialized @(5,0)
GPGPU-Sim uArch: core: 11, cta: 4 initialized @(5,0)
GPGPU-Sim uArch: core: 12, cta: 4 initialized @(5,0)
GPGPU-Sim uArch: core: 13, cta: 4 initialized @(5,0)
GPGPU-Sim uArch: core: 14, cta: 4 initialized @(5,0)
GPGPU-Sim uArch: core:  0, cta: 4 initialized @(5,0)
GPGPU-Sim uArch: core:  1, cta: 5 initialized @(6,0)
GPGPU-Sim uArch: core:  2, cta: 5 initialized @(6,0)
GPGPU-Sim uArch: core:  3, cta: 5 initialized @(6,0)
GPGPU-Sim uArch: core:  4, cta: 5 initialized @(6,0)
GPGPU-Sim uArch: core:  5, cta: 5 initialized @(6,0)
GPGPU-Sim uArch: core:  6, cta: 5 initialized @(6,0)
GPGPU-Sim uArch: core:  7, cta: 5 initialized @(6,0)
GPGPU-Sim uArch: core:  8, cta: 5 initialized @(6,0)
GPGPU-Sim uArch: core:  9, cta: 5 initialized @(6,0)
GPGPU-Sim uArch: core: 10, cta: 5 initialized @(6,0)
GPGPU-Sim uArch: core: 11, cta: 5 initialized @(6,0)
GPGPU-Sim uArch: core: 12, cta: 5 initialized @(6,0)
GPGPU-Sim uArch: core: 13, cta: 5 initialized @(6,0)
GPGPU-Sim uArch: core: 14, cta: 5 initialized @(6,0)
GPGPU-Sim uArch: core:  0, cta: 5 initialized @(6,0)
GPGPU-Sim uArch: core:  1, cta: 6 initialized @(7,0)
GPGPU-Sim uArch: core:  2, cta: 6 initialized @(7,0)
GPGPU-Sim uArch: core:  3, cta: 6 initialized @(7,0)
GPGPU-Sim uArch: core:  4, cta: 6 initialized @(7,0)
GPGPU-Sim uArch: core:  5, cta: 6 initialized @(7,0)
GPGPU-Sim uArch: core:  6, cta: 6 initialized @(7,0)
GPGPU-Sim uArch: core:  7, cta: 6 initialized @(7,0)
GPGPU-Sim uArch: core:  8, cta: 6 initialized @(7,0)
GPGPU-Sim uArch: core:  9, cta: 6 initialized @(7,0)
GPGPU-Sim uArch: core: 10, cta: 6 initialized @(7,0)
GPGPU-Sim PTX: 100000 instructions simulated : ctaid=(1,4,0) tid=(31,1,0)
GPGPU-Sim uArch: cycles simulated: 500  inst.: 109668 (ipc=219.3) sim_rate=109668 (inst/sec) elapsed = 0:0:00:01 / Tue Apr 16 16:54:33 2019
GPGPU-Sim PTX: 200000 instructions simulated : ctaid=(2,22,0) tid=(19,2,0)
GPGPU-Sim uArch: cycles simulated: 1000  inst.: 283772 (ipc=283.8) sim_rate=141886 (inst/sec) elapsed = 0:0:00:02 / Tue Apr 16 16:54:34 2019
GPGPU-Sim PTX: 300000 instructions simulated : ctaid=(0,11,0) tid=(31,3,0)
GPGPU-Sim PTX: 400000 instructions simulated : ctaid=(0,23,0) tid=(15,1,0)
GPGPU-Sim PTX: 500000 instructions simulated : ctaid=(2,5,0) tid=(19,0,0)
GPGPU-Sim PTX: 600000 instructions simulated : ctaid=(1,1,0) tid=(31,2,0)
GPGPU-Sim PTX: 700000 instructions simulated : ctaid=(0,17,0) tid=(19,1,0)
GPGPU-Sim uArch: cycles simulated: 2000  inst.: 730920 (ipc=365.5) sim_rate=243640 (inst/sec) elapsed = 0:0:00:03 / Tue Apr 16 16:54:35 2019
GPGPU-Sim PTX: 800000 instructions simulated : ctaid=(2,13,0) tid=(9,2,0)
GPGPU-Sim PTX: 900000 instructions simulated : ctaid=(0,5,0) tid=(13,1,0)
GPGPU-Sim PTX: 1000000 instructions simulated : ctaid=(1,8,0) tid=(11,2,0)
GPGPU-Sim PTX: 1100000 instructions simulated : ctaid=(1,14,0) tid=(3,1,0)
GPGPU-Sim uArch: cycles simulated: 3000  inst.: 1064878 (ipc=355.0) sim_rate=266219 (inst/sec) elapsed = 0:0:00:04 / Tue Apr 16 16:54:36 2019
GPGPU-Sim PTX: 1200000 instructions simulated : ctaid=(1,3,0) tid=(5,2,0)
GPGPU-Sim PTX: 1300000 instructions simulated : ctaid=(3,19,0) tid=(24,2,0)
GPGPU-Sim uArch: cycles simulated: 4000  inst.: 1255078 (ipc=313.8) sim_rate=251015 (inst/sec) elapsed = 0:0:00:05 / Tue Apr 16 16:54:37 2019
GPGPU-Sim PTX: 1400000 instructions simulated : ctaid=(0,23,0) tid=(26,0,0)
GPGPU-Sim PTX: 1500000 instructions simulated : ctaid=(2,15,0) tid=(10,0,0)
GPGPU-Sim PTX: 1600000 instructions simulated : ctaid=(2,0,0) tid=(27,0,0)
GPGPU-Sim uArch: cycles simulated: 5000  inst.: 1540564 (ipc=308.1) sim_rate=256760 (inst/sec) elapsed = 0:0:00:06 / Tue Apr 16 16:54:38 2019
GPGPU-Sim PTX: 1700000 instructions simulated : ctaid=(2,13,0) tid=(31,1,0)
GPGPU-Sim PTX: 1800000 instructions simulated : ctaid=(2,17,0) tid=(16,2,0)
GPGPU-Sim uArch: cycles simulated: 6000  inst.: 1755526 (ipc=292.6) sim_rate=250789 (inst/sec) elapsed = 0:0:00:07 / Tue Apr 16 16:54:39 2019
GPGPU-Sim PTX: 1900000 instructions simulated : ctaid=(2,13,0) tid=(25,2,0)
GPGPU-Sim PTX: 2000000 instructions simulated : ctaid=(1,16,0) tid=(23,0,0)
GPGPU-Sim uArch: cycles simulated: 6500  inst.: 1883751 (ipc=289.8) sim_rate=235468 (inst/sec) elapsed = 0:0:00:08 / Tue Apr 16 16:54:40 2019
GPGPU-Sim PTX: 2100000 instructions simulated : ctaid=(2,24,0) tid=(17,1,0)
GPGPU-Sim PTX: 2200000 instructions simulated : ctaid=(2,21,0) tid=(12,0,0)
GPGPU-Sim PTX: 2300000 instructions simulated : ctaid=(1,18,0) tid=(9,0,0)
GPGPU-Sim PTX: 2400000 instructions simulated : ctaid=(2,18,0) tid=(21,0,0)
GPGPU-Sim uArch: cycles simulated: 7500  inst.: 2231945 (ipc=297.6) sim_rate=247993 (inst/sec) elapsed = 0:0:00:09 / Tue Apr 16 16:54:41 2019
GPGPU-Sim PTX: 2500000 instructions simulated : ctaid=(2,8,0) tid=(8,1,0)
GPGPU-Sim PTX: 2600000 instructions simulated : ctaid=(2,2,0) tid=(19,0,0)
GPGPU-Sim PTX: 2700000 instructions simulated : ctaid=(0,18,0) tid=(20,3,0)
GPGPU-Sim PTX: 2800000 instructions simulated : ctaid=(3,12,0) tid=(5,2,0)
GPGPU-Sim uArch: cycles simulated: 8500  inst.: 2558454 (ipc=301.0) sim_rate=255845 (inst/sec) elapsed = 0:0:00:10 / Tue Apr 16 16:54:42 2019
GPGPU-Sim PTX: 2900000 instructions simulated : ctaid=(0,8,0) tid=(27,2,0)
GPGPU-Sim uArch: cycles simulated: 9000  inst.: 2717510 (ipc=301.9) sim_rate=247046 (inst/sec) elapsed = 0:0:00:11 / Tue Apr 16 16:54:43 2019
GPGPU-Sim PTX: 3000000 instructions simulated : ctaid=(3,20,0) tid=(1,3,0)
GPGPU-Sim PTX: 3100000 instructions simulated : ctaid=(2,16,0) tid=(30,1,0)
GPGPU-Sim uArch: cycles simulated: 9500  inst.: 2856409 (ipc=300.7) sim_rate=238034 (inst/sec) elapsed = 0:0:00:12 / Tue Apr 16 16:54:44 2019
GPGPU-Sim PTX: 3200000 instructions simulated : ctaid=(0,6,0) tid=(29,1,0)
GPGPU-Sim PTX: 3300000 instructions simulated : ctaid=(2,0,0) tid=(12,3,0)
GPGPU-Sim PTX: 3400000 instructions simulated : ctaid=(1,16,0) tid=(26,1,0)
GPGPU-Sim uArch: cycles simulated: 10500  inst.: 3174923 (ipc=302.4) sim_rate=244224 (inst/sec) elapsed = 0:0:00:13 / Tue Apr 16 16:54:45 2019
GPGPU-Sim PTX: 3500000 instructions simulated : ctaid=(0,6,0) tid=(8,2,0)
GPGPU-Sim PTX: 3600000 instructions simulated : ctaid=(0,9,0) tid=(19,1,0)
GPGPU-Sim uArch: cycles simulated: 11000  inst.: 3327406 (ipc=302.5) sim_rate=237671 (inst/sec) elapsed = 0:0:00:14 / Tue Apr 16 16:54:46 2019
GPGPU-Sim PTX: 3700000 instructions simulated : ctaid=(2,1,0) tid=(16,3,0)
GPGPU-Sim PTX: 3800000 instructions simulated : ctaid=(1,9,0) tid=(20,3,0)
GPGPU-Sim PTX: 3900000 instructions simulated : ctaid=(2,9,0) tid=(28,0,0)
GPGPU-Sim PTX: 4000000 instructions simulated : ctaid=(2,18,0) tid=(6,0,0)
GPGPU-Sim uArch: cycles simulated: 12000  inst.: 3664918 (ipc=305.4) sim_rate=244327 (inst/sec) elapsed = 0:0:00:15 / Tue Apr 16 16:54:47 2019
GPGPU-Sim PTX: 4100000 instructions simulated : ctaid=(1,10,0) tid=(1,3,0)
GPGPU-Sim PTX: 4200000 instructions simulated : ctaid=(1,0,0) tid=(25,2,0)
GPGPU-Sim uArch: cycles simulated: 12500  inst.: 3812008 (ipc=305.0) sim_rate=238250 (inst/sec) elapsed = 0:0:00:16 / Tue Apr 16 16:54:48 2019
GPGPU-Sim PTX: 4300000 instructions simulated : ctaid=(1,18,0) tid=(25,1,0)
GPGPU-Sim PTX: 4400000 instructions simulated : ctaid=(1,20,0) tid=(27,3,0)
GPGPU-Sim PTX: 4500000 instructions simulated : ctaid=(1,14,0) tid=(13,1,0)
GPGPU-Sim uArch: cycles simulated: 13500  inst.: 4110780 (ipc=304.5) sim_rate=241810 (inst/sec) elapsed = 0:0:00:17 / Tue Apr 16 16:54:49 2019
GPGPU-Sim PTX: 4600000 instructions simulated : ctaid=(1,22,0) tid=(4,3,0)
GPGPU-Sim PTX: 4700000 instructions simulated : ctaid=(1,8,0) tid=(15,2,0)
GPGPU-Sim PTX: 4800000 instructions simulated : ctaid=(0,4,0) tid=(4,1,0)
GPGPU-Sim PTX: 4900000 instructions simulated : ctaid=(2,14,0) tid=(17,0,0)
GPGPU-Sim uArch: cycles simulated: 14500  inst.: 4442307 (ipc=306.4) sim_rate=246794 (inst/sec) elapsed = 0:0:00:18 / Tue Apr 16 16:54:50 2019
GPGPU-Sim PTX: 5000000 instructions simulated : ctaid=(1,1,0) tid=(22,0,0)
GPGPU-Sim PTX: 5100000 instructions simulated : ctaid=(1,2,0) tid=(2,1,0)
GPGPU-Sim PTX: 5200000 instructions simulated : ctaid=(1,1,0) tid=(30,1,0)
GPGPU-Sim uArch: cycles simulated: 15500  inst.: 4734355 (ipc=305.4) sim_rate=249176 (inst/sec) elapsed = 0:0:00:19 / Tue Apr 16 16:54:51 2019
GPGPU-Sim PTX: 5300000 instructions simulated : ctaid=(1,8,0) tid=(25,0,0)
GPGPU-Sim PTX: 5400000 instructions simulated : ctaid=(2,14,0) tid=(25,2,0)
GPGPU-Sim PTX: 5500000 instructions simulated : ctaid=(3,7,0) tid=(0,3,0)
GPGPU-Sim PTX: 5600000 instructions simulated : ctaid=(0,2,0) tid=(12,1,0)
GPGPU-Sim uArch: cycles simulated: 16500  inst.: 5063253 (ipc=306.9) sim_rate=253162 (inst/sec) elapsed = 0:0:00:20 / Tue Apr 16 16:54:52 2019
GPGPU-Sim PTX: 5700000 instructions simulated : ctaid=(0,5,0) tid=(11,1,0)
GPGPU-Sim uArch: cycles simulated: 17000  inst.: 5209424 (ipc=306.4) sim_rate=248067 (inst/sec) elapsed = 0:0:00:21 / Tue Apr 16 16:54:53 2019
GPGPU-Sim PTX: 5800000 instructions simulated : ctaid=(1,15,0) tid=(9,0,0)
GPGPU-Sim PTX: 5900000 instructions simulated : ctaid=(2,17,0) tid=(6,3,0)
GPGPU-Sim PTX: 6000000 instructions simulated : ctaid=(0,7,0) tid=(1,3,0)
GPGPU-Sim PTX: 6100000 instructions simulated : ctaid=(0,6,0) tid=(14,0,0)
GPGPU-Sim uArch: cycles simulated: 18000  inst.: 5514317 (ipc=306.4) sim_rate=250650 (inst/sec) elapsed = 0:0:00:22 / Tue Apr 16 16:54:54 2019
GPGPU-Sim PTX: 6200000 instructions simulated : ctaid=(1,3,0) tid=(30,1,0)
GPGPU-Sim PTX: 6300000 instructions simulated : ctaid=(3,15,0) tid=(8,3,0)
GPGPU-Sim PTX: 6400000 instructions simulated : ctaid=(1,6,0) tid=(14,1,0)
GPGPU-Sim uArch: cycles simulated: 19000  inst.: 5831845 (ipc=306.9) sim_rate=253558 (inst/sec) elapsed = 0:0:00:23 / Tue Apr 16 16:54:55 2019
GPGPU-Sim PTX: 6500000 instructions simulated : ctaid=(1,17,0) tid=(31,3,0)
GPGPU-Sim PTX: 6600000 instructions simulated : ctaid=(0,1,0) tid=(30,2,0)
GPGPU-Sim uArch: cycles simulated: 19500  inst.: 5998657 (ipc=307.6) sim_rate=249944 (inst/sec) elapsed = 0:0:00:24 / Tue Apr 16 16:54:56 2019
GPGPU-Sim PTX: 6700000 instructions simulated : ctaid=(2,16,0) tid=(22,3,0)
GPGPU-Sim PTX: 6800000 instructions simulated : ctaid=(2,8,0) tid=(30,1,0)
GPGPU-Sim PTX: 6900000 instructions simulated : ctaid=(1,3,0) tid=(29,2,0)
GPGPU-Sim PTX: 7000000 instructions simulated : ctaid=(0,19,0) tid=(5,1,0)
GPGPU-Sim uArch: cycles simulated: 20500  inst.: 6305132 (ipc=307.6) sim_rate=252205 (inst/sec) elapsed = 0:0:00:25 / Tue Apr 16 16:54:57 2019
GPGPU-Sim PTX: 7100000 instructions simulated : ctaid=(1,23,0) tid=(21,1,0)
GPGPU-Sim PTX: 7200000 instructions simulated : ctaid=(1,0,0) tid=(10,2,0)
GPGPU-Sim PTX: 7300000 instructions simulated : ctaid=(0,14,0) tid=(29,0,0)
GPGPU-Sim uArch: cycles simulated: 21500  inst.: 6624475 (ipc=308.1) sim_rate=254787 (inst/sec) elapsed = 0:0:00:26 / Tue Apr 16 16:54:58 2019
GPGPU-Sim PTX: 7400000 instructions simulated : ctaid=(2,2,0) tid=(22,0,0)
GPGPU-Sim PTX: 7500000 instructions simulated : ctaid=(2,5,0) tid=(6,3,0)
GPGPU-Sim PTX: 7600000 instructions simulated : ctaid=(2,10,0) tid=(3,0,0)
GPGPU-Sim PTX: 7700000 instructions simulated : ctaid=(1,0,0) tid=(9,2,0)
GPGPU-Sim uArch: cycles simulated: 22500  inst.: 6940141 (ipc=308.5) sim_rate=257042 (inst/sec) elapsed = 0:0:00:27 / Tue Apr 16 16:54:59 2019
GPGPU-Sim PTX: 7800000 instructions simulated : ctaid=(1,4,0) tid=(12,0,0)
GPGPU-Sim PTX: 7900000 instructions simulated : ctaid=(1,3,0) tid=(31,1,0)
GPGPU-Sim PTX: 8000000 instructions simulated : ctaid=(1,11,0) tid=(8,1,0)
GPGPU-Sim uArch: cycles simulated: 23500  inst.: 7225036 (ipc=307.4) sim_rate=258037 (inst/sec) elapsed = 0:0:00:28 / Tue Apr 16 16:55:00 2019
GPGPU-Sim PTX: 8100000 instructions simulated : ctaid=(3,16,0) tid=(13,3,0)
GPGPU-Sim PTX: 8200000 instructions simulated : ctaid=(1,18,0) tid=(10,2,0)
GPGPU-Sim PTX: 8300000 instructions simulated : ctaid=(2,14,0) tid=(27,2,0)
GPGPU-Sim PTX: 8400000 instructions simulated : ctaid=(0,1,0) tid=(24,1,0)
GPGPU-Sim uArch: cycles simulated: 24500  inst.: 7569482 (ipc=309.0) sim_rate=261016 (inst/sec) elapsed = 0:0:00:29 / Tue Apr 16 16:55:01 2019
GPGPU-Sim PTX: 8500000 instructions simulated : ctaid=(1,3,0) tid=(14,1,0)
GPGPU-Sim PTX: 8600000 instructions simulated : ctaid=(1,8,0) tid=(22,0,0)
GPGPU-Sim PTX: 8700000 instructions simulated : ctaid=(2,8,0) tid=(12,3,0)
GPGPU-Sim uArch: cycles simulated: 25500  inst.: 7846098 (ipc=307.7) sim_rate=261536 (inst/sec) elapsed = 0:0:00:30 / Tue Apr 16 16:55:02 2019
GPGPU-Sim PTX: 8800000 instructions simulated : ctaid=(2,15,0) tid=(7,0,0)
GPGPU-Sim PTX: 8900000 instructions simulated : ctaid=(1,7,0) tid=(7,2,0)
GPGPU-Sim uArch: cycles simulated: 26000  inst.: 8026453 (ipc=308.7) sim_rate=258917 (inst/sec) elapsed = 0:0:00:31 / Tue Apr 16 16:55:03 2019
GPGPU-Sim PTX: 9000000 instructions simulated : ctaid=(1,13,0) tid=(21,1,0)
GPGPU-Sim PTX: 9100000 instructions simulated : ctaid=(0,6,0) tid=(26,3,0)
GPGPU-Sim PTX: 9200000 instructions simulated : ctaid=(0,1,0) tid=(13,0,0)
GPGPU-Sim uArch: cycles simulated: 27000  inst.: 8289264 (ipc=307.0) sim_rate=259039 (inst/sec) elapsed = 0:0:00:32 / Tue Apr 16 16:55:04 2019
GPGPU-Sim PTX: 9300000 instructions simulated : ctaid=(0,9,0) tid=(3,2,0)
GPGPU-Sim PTX: 9400000 instructions simulated : ctaid=(1,14,0) tid=(3,1,0)
GPGPU-Sim PTX: 9500000 instructions simulated : ctaid=(0,3,0) tid=(29,1,0)
GPGPU-Sim uArch: cycles simulated: 28000  inst.: 8577808 (ipc=306.4) sim_rate=259933 (inst/sec) elapsed = 0:0:00:33 / Tue Apr 16 16:55:05 2019
GPGPU-Sim PTX: 9600000 instructions simulated : ctaid=(1,22,0) tid=(29,0,0)
GPGPU-Sim PTX: 9700000 instructions simulated : ctaid=(1,4,0) tid=(23,1,0)
GPGPU-Sim PTX: 9800000 instructions simulated : ctaid=(0,16,0) tid=(11,2,0)
GPGPU-Sim PTX: 9900000 instructions simulated : ctaid=(2,1,0) tid=(19,3,0)
GPGPU-Sim uArch: cycles simulated: 29000  inst.: 8879824 (ipc=306.2) sim_rate=261171 (inst/sec) elapsed = 0:0:00:34 / Tue Apr 16 16:55:06 2019
GPGPU-Sim PTX: 10000000 instructions simulated : ctaid=(2,0,0) tid=(25,0,0)
GPGPU-Sim PTX: 10100000 instructions simulated : ctaid=(0,8,0) tid=(0,0,0)
GPGPU-Sim PTX: 10200000 instructions simulated : ctaid=(1,17,0) tid=(29,2,0)
GPGPU-Sim uArch: cycles simulated: 30000  inst.: 9166685 (ipc=305.6) sim_rate=261905 (inst/sec) elapsed = 0:0:00:35 / Tue Apr 16 16:55:07 2019
GPGPU-Sim PTX: 10300000 instructions simulated : ctaid=(1,3,0) tid=(10,2,0)
GPGPU-Sim PTX: 10400000 instructions simulated : ctaid=(0,5,0) tid=(24,0,0)
GPGPU-Sim PTX: 10500000 instructions simulated : ctaid=(2,2,0) tid=(5,3,0)
GPGPU-Sim uArch: cycles simulated: 31000  inst.: 9466676 (ipc=305.4) sim_rate=262963 (inst/sec) elapsed = 0:0:00:36 / Tue Apr 16 16:55:08 2019
GPGPU-Sim PTX: 10600000 instructions simulated : ctaid=(0,23,0) tid=(1,3,0)
GPGPU-Sim PTX: 10700000 instructions simulated : ctaid=(2,18,0) tid=(25,3,0)
GPGPU-Sim PTX: 10800000 instructions simulated : ctaid=(1,13,0) tid=(13,1,0)
GPGPU-Sim PTX: 10900000 instructions simulated : ctaid=(2,8,0) tid=(2,1,0)
GPGPU-Sim uArch: cycles simulated: 32000  inst.: 9786744 (ipc=305.8) sim_rate=264506 (inst/sec) elapsed = 0:0:00:37 / Tue Apr 16 16:55:09 2019
GPGPU-Sim PTX: 11000000 instructions simulated : ctaid=(2,14,0) tid=(8,3,0)
GPGPU-Sim PTX: 11100000 instructions simulated : ctaid=(1,11,0) tid=(17,2,0)
GPGPU-Sim PTX: 11200000 instructions simulated : ctaid=(1,0,0) tid=(24,0,0)
GPGPU-Sim uArch: cycles simulated: 33000  inst.: 10067554 (ipc=305.1) sim_rate=264935 (inst/sec) elapsed = 0:0:00:38 / Tue Apr 16 16:55:10 2019
GPGPU-Sim PTX: 11300000 instructions simulated : ctaid=(1,15,0) tid=(21,3,0)
GPGPU-Sim PTX: 11400000 instructions simulated : ctaid=(1,14,0) tid=(9,3,0)
GPGPU-Sim PTX: 11500000 instructions simulated : ctaid=(1,10,0) tid=(21,0,0)
GPGPU-Sim uArch: cycles simulated: 34000  inst.: 10366064 (ipc=304.9) sim_rate=265796 (inst/sec) elapsed = 0:0:00:39 / Tue Apr 16 16:55:11 2019
GPGPU-Sim PTX: 11600000 instructions simulated : ctaid=(1,10,0) tid=(29,3,0)
GPGPU-Sim PTX: 11700000 instructions simulated : ctaid=(0,11,0) tid=(31,1,0)
GPGPU-Sim PTX: 11800000 instructions simulated : ctaid=(0,14,0) tid=(21,1,0)
GPGPU-Sim PTX: 11900000 instructions simulated : ctaid=(1,1,0) tid=(3,2,0)
GPGPU-Sim uArch: cycles simulated: 35000  inst.: 10653716 (ipc=304.4) sim_rate=266342 (inst/sec) elapsed = 0:0:00:40 / Tue Apr 16 16:55:12 2019
GPGPU-Sim PTX: 12000000 instructions simulated : ctaid=(3,13,0) tid=(0,3,0)
GPGPU-Sim PTX: 12100000 instructions simulated : ctaid=(3,6,0) tid=(8,1,0)
GPGPU-Sim PTX: 12200000 instructions simulated : ctaid=(1,11,0) tid=(0,0,0)
GPGPU-Sim uArch: cycles simulated: 36000  inst.: 10963820 (ipc=304.6) sim_rate=267410 (inst/sec) elapsed = 0:0:00:41 / Tue Apr 16 16:55:13 2019
GPGPU-Sim PTX: 12300000 instructions simulated : ctaid=(2,9,0) tid=(7,0,0)
GPGPU-Sim PTX: 12400000 instructions simulated : ctaid=(2,8,0) tid=(11,2,0)
GPGPU-Sim PTX: 12500000 instructions simulated : ctaid=(2,11,0) tid=(2,0,0)
GPGPU-Sim uArch: cycles simulated: 37000  inst.: 11246700 (ipc=304.0) sim_rate=267778 (inst/sec) elapsed = 0:0:00:42 / Tue Apr 16 16:55:14 2019
GPGPU-Sim PTX: 12600000 instructions simulated : ctaid=(1,6,0) tid=(3,3,0)
GPGPU-Sim PTX: 12700000 instructions simulated : ctaid=(2,9,0) tid=(24,1,0)
GPGPU-Sim PTX: 12800000 instructions simulated : ctaid=(2,16,0) tid=(0,1,0)
GPGPU-Sim uArch: cycles simulated: 38000  inst.: 11525336 (ipc=303.3) sim_rate=268031 (inst/sec) elapsed = 0:0:00:43 / Tue Apr 16 16:55:15 2019
GPGPU-Sim PTX: 12900000 instructions simulated : ctaid=(1,2,0) tid=(31,2,0)
GPGPU-Sim PTX: 13000000 instructions simulated : ctaid=(2,7,0) tid=(7,3,0)
GPGPU-Sim PTX: 13100000 instructions simulated : ctaid=(1,3,0) tid=(14,1,0)
GPGPU-Sim PTX: 13200000 instructions simulated : ctaid=(1,21,0) tid=(31,0,0)
GPGPU-Sim uArch: cycles simulated: 39000  inst.: 11819817 (ipc=303.1) sim_rate=268632 (inst/sec) elapsed = 0:0:00:44 / Tue Apr 16 16:55:16 2019
GPGPU-Sim PTX: 13300000 instructions simulated : ctaid=(3,0,0) tid=(12,2,0)
GPGPU-Sim PTX: 13400000 instructions simulated : ctaid=(2,5,0) tid=(13,0,0)
GPGPU-Sim PTX: 13500000 instructions simulated : ctaid=(0,14,0) tid=(12,1,0)
GPGPU-Sim uArch: cycles simulated: 40000  inst.: 12074820 (ipc=301.9) sim_rate=268329 (inst/sec) elapsed = 0:0:00:45 / Tue Apr 16 16:55:17 2019
GPGPU-Sim PTX: 13600000 instructions simulated : ctaid=(2,8,0) tid=(28,1,0)
GPGPU-Sim uArch: cycles simulated: 40500  inst.: 12219099 (ipc=301.7) sim_rate=265632 (inst/sec) elapsed = 0:0:00:46 / Tue Apr 16 16:55:18 2019
GPGPU-Sim PTX: 13700000 instructions simulated : ctaid=(1,1,0) tid=(12,2,0)
GPGPU-Sim PTX: 13800000 instructions simulated : ctaid=(2,12,0) tid=(9,0,0)
GPGPU-Sim PTX: 13900000 instructions simulated : ctaid=(0,13,0) tid=(19,0,0)
GPGPU-Sim uArch: cycles simulated: 41500  inst.: 12510286 (ipc=301.5) sim_rate=266176 (inst/sec) elapsed = 0:0:00:47 / Tue Apr 16 16:55:19 2019
GPGPU-Sim PTX: 14000000 instructions simulated : ctaid=(2,0,0) tid=(11,2,0)
GPGPU-Sim PTX: 14100000 instructions simulated : ctaid=(0,4,0) tid=(5,1,0)
GPGPU-Sim PTX: 14200000 instructions simulated : ctaid=(0,8,0) tid=(24,3,0)
GPGPU-Sim PTX: 14300000 instructions simulated : ctaid=(1,15,0) tid=(24,0,0)
GPGPU-Sim uArch: cycles simulated: 42500  inst.: 12796128 (ipc=301.1) sim_rate=266586 (inst/sec) elapsed = 0:0:00:48 / Tue Apr 16 16:55:20 2019
GPGPU-Sim PTX: 14400000 instructions simulated : ctaid=(2,20,0) tid=(6,1,0)
GPGPU-Sim PTX: 14500000 instructions simulated : ctaid=(1,15,0) tid=(26,1,0)
GPGPU-Sim PTX: 14600000 instructions simulated : ctaid=(0,2,0) tid=(4,3,0)
GPGPU-Sim uArch: cycles simulated: 43500  inst.: 13091390 (ipc=301.0) sim_rate=267171 (inst/sec) elapsed = 0:0:00:49 / Tue Apr 16 16:55:21 2019
GPGPU-Sim PTX: 14700000 instructions simulated : ctaid=(1,2,0) tid=(10,0,0)
GPGPU-Sim PTX: 14800000 instructions simulated : ctaid=(2,15,0) tid=(15,3,0)
GPGPU-Sim PTX: 14900000 instructions simulated : ctaid=(0,14,0) tid=(10,0,0)
GPGPU-Sim uArch: cycles simulated: 44500  inst.: 13372042 (ipc=300.5) sim_rate=267440 (inst/sec) elapsed = 0:0:00:50 / Tue Apr 16 16:55:22 2019
GPGPU-Sim PTX: 15000000 instructions simulated : ctaid=(1,6,0) tid=(1,0,0)
GPGPU-Sim PTX: 15100000 instructions simulated : ctaid=(1,20,0) tid=(13,2,0)
GPGPU-Sim PTX: 15200000 instructions simulated : ctaid=(2,7,0) tid=(23,0,0)
GPGPU-Sim uArch: cycles simulated: 45500  inst.: 13642906 (ipc=299.8) sim_rate=267507 (inst/sec) elapsed = 0:0:00:51 / Tue Apr 16 16:55:23 2019
GPGPU-Sim PTX: 15300000 instructions simulated : ctaid=(2,9,0) tid=(11,0,0)
GPGPU-Sim PTX: 15400000 instructions simulated : ctaid=(3,16,0) tid=(2,2,0)
GPGPU-Sim PTX: 15500000 instructions simulated : ctaid=(2,3,0) tid=(6,2,0)
GPGPU-Sim uArch: cycles simulated: 46500  inst.: 13930450 (ipc=299.6) sim_rate=267893 (inst/sec) elapsed = 0:0:00:52 / Tue Apr 16 16:55:24 2019
GPGPU-Sim PTX: 15600000 instructions simulated : ctaid=(2,4,0) tid=(3,0,0)
GPGPU-Sim PTX: 15700000 instructions simulated : ctaid=(0,15,0) tid=(3,0,0)
GPGPU-Sim PTX: 15800000 instructions simulated : ctaid=(1,19,0) tid=(30,3,0)
GPGPU-Sim PTX: 15900000 instructions simulated : ctaid=(2,9,0) tid=(12,1,0)
GPGPU-Sim uArch: cycles simulated: 47500  inst.: 14210395 (ipc=299.2) sim_rate=268120 (inst/sec) elapsed = 0:0:00:53 / Tue Apr 16 16:55:25 2019
GPGPU-Sim PTX: 16000000 instructions simulated : ctaid=(1,22,0) tid=(9,3,0)
GPGPU-Sim uArch: cycles simulated: 48000  inst.: 14377314 (ipc=299.5) sim_rate=266246 (inst/sec) elapsed = 0:0:00:54 / Tue Apr 16 16:55:26 2019
GPGPU-Sim PTX: 16100000 instructions simulated : ctaid=(2,15,0) tid=(7,3,0)
GPGPU-Sim PTX: 16200000 instructions simulated : ctaid=(0,0,0) tid=(11,2,0)
GPGPU-Sim PTX: 16300000 instructions simulated : ctaid=(2,3,0) tid=(7,2,0)
GPGPU-Sim PTX: 16400000 instructions simulated : ctaid=(2,3,0) tid=(1,3,0)
GPGPU-Sim uArch: cycles simulated: 49000  inst.: 14683565 (ipc=299.7) sim_rate=266973 (inst/sec) elapsed = 0:0:00:55 / Tue Apr 16 16:55:27 2019
GPGPU-Sim PTX: 16500000 instructions simulated : ctaid=(0,2,0) tid=(11,1,0)
GPGPU-Sim PTX: 16600000 instructions simulated : ctaid=(2,7,0) tid=(16,3,0)
GPGPU-Sim PTX: 16700000 instructions simulated : ctaid=(0,10,0) tid=(3,2,0)
GPGPU-Sim uArch: cycles simulated: 50000  inst.: 14988644 (ipc=299.8) sim_rate=267654 (inst/sec) elapsed = 0:0:00:56 / Tue Apr 16 16:55:28 2019
GPGPU-Sim PTX: 16800000 instructions simulated : ctaid=(1,13,0) tid=(3,1,0)
GPGPU-Sim PTX: 16900000 instructions simulated : ctaid=(2,10,0) tid=(20,3,0)
GPGPU-Sim PTX: 17000000 instructions simulated : ctaid=(3,7,0) tid=(0,1,0)
GPGPU-Sim PTX: 17100000 instructions simulated : ctaid=(0,6,0) tid=(13,1,0)
GPGPU-Sim uArch: cycles simulated: 51000  inst.: 15285345 (ipc=299.7) sim_rate=268163 (inst/sec) elapsed = 0:0:00:57 / Tue Apr 16 16:55:29 2019
GPGPU-Sim PTX: 17200000 instructions simulated : ctaid=(1,22,0) tid=(22,3,0)
GPGPU-Sim uArch: cycles simulated: 51500  inst.: 15437455 (ipc=299.8) sim_rate=266163 (inst/sec) elapsed = 0:0:00:58 / Tue Apr 16 16:55:30 2019
GPGPU-Sim PTX: 17300000 instructions simulated : ctaid=(0,2,0) tid=(9,1,0)
GPGPU-Sim PTX: 17400000 instructions simulated : ctaid=(2,16,0) tid=(9,2,0)
GPGPU-Sim PTX: 17500000 instructions simulated : ctaid=(1,13,0) tid=(28,2,0)
GPGPU-Sim PTX: 17600000 instructions simulated : ctaid=(0,16,0) tid=(7,1,0)
GPGPU-Sim uArch: cycles simulated: 52500  inst.: 15729438 (ipc=299.6) sim_rate=266600 (inst/sec) elapsed = 0:0:00:59 / Tue Apr 16 16:55:31 2019
GPGPU-Sim PTX: 17700000 instructions simulated : ctaid=(2,6,0) tid=(20,3,0)
GPGPU-Sim PTX: 17800000 instructions simulated : ctaid=(1,4,0) tid=(9,0,0)
GPGPU-Sim PTX: 17900000 instructions simulated : ctaid=(1,17,0) tid=(27,1,0)
GPGPU-Sim uArch: cycles simulated: 53500  inst.: 16035785 (ipc=299.7) sim_rate=267263 (inst/sec) elapsed = 0:0:01:00 / Tue Apr 16 16:55:32 2019
GPGPU-Sim PTX: 18000000 instructions simulated : ctaid=(2,11,0) tid=(21,2,0)
GPGPU-Sim PTX: 18100000 instructions simulated : ctaid=(2,14,0) tid=(0,3,0)
GPGPU-Sim PTX: 18200000 instructions simulated : ctaid=(2,9,0) tid=(28,3,0)
GPGPU-Sim PTX: 18300000 instructions simulated : ctaid=(2,8,0) tid=(16,2,0)
GPGPU-Sim uArch: cycles simulated: 54500  inst.: 16336758 (ipc=299.8) sim_rate=267815 (inst/sec) elapsed = 0:0:01:01 / Tue Apr 16 16:55:33 2019
GPGPU-Sim PTX: 18400000 instructions simulated : ctaid=(0,1,0) tid=(12,1,0)
GPGPU-Sim PTX: 18500000 instructions simulated : ctaid=(2,22,0) tid=(13,3,0)
GPGPU-Sim PTX: 18600000 instructions simulated : ctaid=(3,7,0) tid=(8,3,0)
GPGPU-Sim uArch: cycles simulated: 55500  inst.: 16634036 (ipc=299.7) sim_rate=268290 (inst/sec) elapsed = 0:0:01:02 / Tue Apr 16 16:55:34 2019
GPGPU-Sim PTX: 18700000 instructions simulated : ctaid=(0,4,0) tid=(4,0,0)
GPGPU-Sim PTX: 18800000 instructions simulated : ctaid=(0,15,0) tid=(20,0,0)
GPGPU-Sim PTX: 18900000 instructions simulated : ctaid=(2,22,0) tid=(23,3,0)
GPGPU-Sim uArch: cycles simulated: 56500  inst.: 16919322 (ipc=299.5) sim_rate=268560 (inst/sec) elapsed = 0:0:01:03 / Tue Apr 16 16:55:35 2019
GPGPU-Sim PTX: 19000000 instructions simulated : ctaid=(1,18,0) tid=(10,0,0)
GPGPU-Sim PTX: 19100000 instructions simulated : ctaid=(2,14,0) tid=(31,1,0)
GPGPU-Sim PTX: 19200000 instructions simulated : ctaid=(1,5,0) tid=(14,2,0)
GPGPU-Sim PTX: 19300000 instructions simulated : ctaid=(0,11,0) tid=(26,1,0)
GPGPU-Sim uArch: cycles simulated: 57500  inst.: 17236455 (ipc=299.8) sim_rate=269319 (inst/sec) elapsed = 0:0:01:04 / Tue Apr 16 16:55:36 2019
GPGPU-Sim PTX: 19400000 instructions simulated : ctaid=(2,2,0) tid=(15,2,0)
GPGPU-Sim uArch: cycles simulated: 58000  inst.: 17373092 (ipc=299.5) sim_rate=267278 (inst/sec) elapsed = 0:0:01:05 / Tue Apr 16 16:55:37 2019
GPGPU-Sim PTX: 19500000 instructions simulated : ctaid=(0,3,0) tid=(1,0,0)
GPGPU-Sim PTX: 19600000 instructions simulated : ctaid=(2,22,0) tid=(9,0,0)
GPGPU-Sim PTX: 19700000 instructions simulated : ctaid=(0,0,0) tid=(11,1,0)
GPGPU-Sim PTX: 19800000 instructions simulated : ctaid=(0,16,0) tid=(11,1,0)
GPGPU-Sim uArch: cycles simulated: 59000  inst.: 17694515 (ipc=299.9) sim_rate=268098 (inst/sec) elapsed = 0:0:01:06 / Tue Apr 16 16:55:38 2019
GPGPU-Sim PTX: 19900000 instructions simulated : ctaid=(0,18,0) tid=(13,1,0)
GPGPU-Sim PTX: 20000000 instructions simulated : ctaid=(1,23,0) tid=(28,1,0)
GPGPU-Sim PTX: 20100000 instructions simulated : ctaid=(2,0,0) tid=(2,1,0)
GPGPU-Sim uArch: cycles simulated: 60000  inst.: 17981650 (ipc=299.7) sim_rate=268382 (inst/sec) elapsed = 0:0:01:07 / Tue Apr 16 16:55:39 2019
GPGPU-Sim PTX: 20200000 instructions simulated : ctaid=(1,9,0) tid=(11,2,0)
GPGPU-Sim PTX: 20300000 instructions simulated : ctaid=(2,5,0) tid=(7,1,0)
GPGPU-Sim PTX: 20400000 instructions simulated : ctaid=(1,4,0) tid=(9,1,0)
GPGPU-Sim uArch: cycles simulated: 61000  inst.: 18252206 (ipc=299.2) sim_rate=268414 (inst/sec) elapsed = 0:0:01:08 / Tue Apr 16 16:55:40 2019
GPGPU-Sim PTX: 20500000 instructions simulated : ctaid=(3,17,0) tid=(0,1,0)
GPGPU-Sim PTX: 20600000 instructions simulated : ctaid=(1,21,0) tid=(31,2,0)
GPGPU-Sim uArch: cycles simulated: 61500  inst.: 18403672 (ipc=299.2) sim_rate=266719 (inst/sec) elapsed = 0:0:01:09 / Tue Apr 16 16:55:41 2019
GPGPU-Sim PTX: 20700000 instructions simulated : ctaid=(2,8,0) tid=(25,2,0)
GPGPU-Sim uArch: cycles simulated: 62000  inst.: 18548951 (ipc=299.2) sim_rate=264985 (inst/sec) elapsed = 0:0:01:10 / Tue Apr 16 16:55:42 2019
GPGPU-Sim PTX: 20800000 instructions simulated : ctaid=(0,7,0) tid=(16,2,0)
GPGPU-Sim PTX: 20900000 instructions simulated : ctaid=(1,6,0) tid=(20,0,0)
GPGPU-Sim PTX: 21000000 instructions simulated : ctaid=(1,2,0) tid=(30,2,0)
GPGPU-Sim PTX: 21100000 instructions simulated : ctaid=(2,0,0) tid=(12,3,0)
GPGPU-Sim uArch: cycles simulated: 63000  inst.: 18874552 (ipc=299.6) sim_rate=265838 (inst/sec) elapsed = 0:0:01:11 / Tue Apr 16 16:55:43 2019
GPGPU-Sim PTX: 21200000 instructions simulated : ctaid=(1,20,0) tid=(4,2,0)
GPGPU-Sim PTX: 21300000 instructions simulated : ctaid=(0,17,0) tid=(15,0,0)
GPGPU-Sim PTX: 21400000 instructions simulated : ctaid=(3,20,0) tid=(15,1,0)
GPGPU-Sim PTX: 21500000 instructions simulated : ctaid=(2,3,0) tid=(6,2,0)
GPGPU-Sim uArch: cycles simulated: 64000  inst.: 19184260 (ipc=299.8) sim_rate=266448 (inst/sec) elapsed = 0:0:01:12 / Tue Apr 16 16:55:44 2019
GPGPU-Sim PTX: 21600000 instructions simulated : ctaid=(2,22,0) tid=(26,0,0)
GPGPU-Sim PTX: 21700000 instructions simulated : ctaid=(1,20,0) tid=(12,1,0)
GPGPU-Sim PTX: 21800000 instructions simulated : ctaid=(2,13,0) tid=(30,1,0)
GPGPU-Sim uArch: cycles simulated: 65000  inst.: 19491027 (ipc=299.9) sim_rate=267000 (inst/sec) elapsed = 0:0:01:13 / Tue Apr 16 16:55:45 2019
GPGPU-Sim PTX: 21900000 instructions simulated : ctaid=(1,19,0) tid=(17,1,0)
GPGPU-Sim PTX: 22000000 instructions simulated : ctaid=(2,18,0) tid=(31,3,0)
GPGPU-Sim PTX: 22100000 instructions simulated : ctaid=(1,22,0) tid=(28,3,0)
GPGPU-Sim uArch: cycles simulated: 66000  inst.: 19751798 (ipc=299.3) sim_rate=266916 (inst/sec) elapsed = 0:0:01:14 / Tue Apr 16 16:55:46 2019
GPGPU-Sim PTX: 22200000 instructions simulated : ctaid=(3,9,0) tid=(24,3,0)
GPGPU-Sim PTX: 22300000 instructions simulated : ctaid=(0,4,0) tid=(15,0,0)
GPGPU-Sim PTX: 22400000 instructions simulated : ctaid=(2,11,0) tid=(16,0,0)
GPGPU-Sim uArch: cycles simulated: 67000  inst.: 20059404 (ipc=299.4) sim_rate=267458 (inst/sec) elapsed = 0:0:01:15 / Tue Apr 16 16:55:47 2019
GPGPU-Sim PTX: 22500000 instructions simulated : ctaid=(1,8,0) tid=(2,1,0)
GPGPU-Sim PTX: 22600000 instructions simulated : ctaid=(0,7,0) tid=(20,2,0)
GPGPU-Sim PTX: 22700000 instructions simulated : ctaid=(0,11,0) tid=(30,3,0)
GPGPU-Sim PTX: 22800000 instructions simulated : ctaid=(0,15,0) tid=(17,0,0)
GPGPU-Sim uArch: cycles simulated: 68000  inst.: 20365207 (ipc=299.5) sim_rate=267963 (inst/sec) elapsed = 0:0:01:16 / Tue Apr 16 16:55:48 2019
GPGPU-Sim PTX: 22900000 instructions simulated : ctaid=(0,1,0) tid=(30,1,0)
GPGPU-Sim PTX: 23000000 instructions simulated : ctaid=(2,16,0) tid=(2,2,0)
GPGPU-Sim PTX: 23100000 instructions simulated : ctaid=(1,18,0) tid=(13,0,0)
GPGPU-Sim uArch: cycles simulated: 69000  inst.: 20660838 (ipc=299.4) sim_rate=268322 (inst/sec) elapsed = 0:0:01:17 / Tue Apr 16 16:55:49 2019
GPGPU-Sim PTX: 23200000 instructions simulated : ctaid=(2,5,0) tid=(27,0,0)
GPGPU-Sim PTX: 23300000 instructions simulated : ctaid=(1,10,0) tid=(28,1,0)
GPGPU-Sim PTX: 23400000 instructions simulated : ctaid=(0,2,0) tid=(13,0,0)
GPGPU-Sim PTX: 23500000 instructions simulated : ctaid=(1,18,0) tid=(28,0,0)
GPGPU-Sim PTX: 23600000 instructions simulated : ctaid=(1,3,0) tid=(13,0,0)
GPGPU-Sim uArch: cycles simulated: 70500  inst.: 21109347 (ipc=299.4) sim_rate=270632 (inst/sec) elapsed = 0:0:01:18 / Tue Apr 16 16:55:50 2019
GPGPU-Sim PTX: 23700000 instructions simulated : ctaid=(0,0,0) tid=(24,3,0)
GPGPU-Sim PTX: 23800000 instructions simulated : ctaid=(1,8,0) tid=(17,1,0)
GPGPU-Sim uArch: cycles simulated: 71000  inst.: 21300583 (ipc=300.0) sim_rate=269627 (inst/sec) elapsed = 0:0:01:19 / Tue Apr 16 16:55:51 2019
GPGPU-Sim PTX: 23900000 instructions simulated : ctaid=(2,16,0) tid=(5,3,0)
GPGPU-Sim PTX: 24000000 instructions simulated : ctaid=(2,15,0) tid=(3,3,0)
GPGPU-Sim PTX: 24100000 instructions simulated : ctaid=(0,6,0) tid=(4,0,0)
GPGPU-Sim uArch: cycles simulated: 72000  inst.: 21559445 (ipc=299.4) sim_rate=269493 (inst/sec) elapsed = 0:0:01:20 / Tue Apr 16 16:55:52 2019
GPGPU-Sim PTX: 24200000 instructions simulated : ctaid=(3,3,0) tid=(20,0,0)
GPGPU-Sim PTX: 24300000 instructions simulated : ctaid=(0,10,0) tid=(29,0,0)
GPGPU-Sim PTX: 24400000 instructions simulated : ctaid=(1,12,0) tid=(7,3,0)
GPGPU-Sim PTX: 24500000 instructions simulated : ctaid=(0,11,0) tid=(26,2,0)
GPGPU-Sim uArch: cycles simulated: 73000  inst.: 21858574 (ipc=299.4) sim_rate=269858 (inst/sec) elapsed = 0:0:01:21 / Tue Apr 16 16:55:53 2019
GPGPU-Sim PTX: 24600000 instructions simulated : ctaid=(1,19,0) tid=(13,0,0)
GPGPU-Sim uArch: cycles simulated: 73500  inst.: 21998059 (ipc=299.3) sim_rate=268269 (inst/sec) elapsed = 0:0:01:22 / Tue Apr 16 16:55:54 2019
GPGPU-Sim PTX: 24700000 instructions simulated : ctaid=(2,9,0) tid=(23,1,0)
GPGPU-Sim PTX: 24800000 instructions simulated : ctaid=(1,11,0) tid=(29,3,0)
GPGPU-Sim PTX: 24900000 instructions simulated : ctaid=(1,15,0) tid=(8,2,0)
GPGPU-Sim PTX: 25000000 instructions simulated : ctaid=(0,16,0) tid=(4,2,0)
GPGPU-Sim uArch: cycles simulated: 74500  inst.: 22311210 (ipc=299.5) sim_rate=268809 (inst/sec) elapsed = 0:0:01:23 / Tue Apr 16 16:55:55 2019
GPGPU-Sim PTX: 25100000 instructions simulated : ctaid=(2,20,0) tid=(10,3,0)
GPGPU-Sim PTX: 25200000 instructions simulated : ctaid=(0,12,0) tid=(28,1,0)
GPGPU-Sim uArch: cycles simulated: 75000  inst.: 22483899 (ipc=299.8) sim_rate=267665 (inst/sec) elapsed = 0:0:01:24 / Tue Apr 16 16:55:56 2019
GPGPU-Sim PTX: 25300000 instructions simulated : ctaid=(0,12,0) tid=(16,0,0)
GPGPU-Sim PTX: 25400000 instructions simulated : ctaid=(1,7,0) tid=(29,1,0)
GPGPU-Sim PTX: 25500000 instructions simulated : ctaid=(1,13,0) tid=(8,0,0)
GPGPU-Sim uArch: cycles simulated: 76000  inst.: 22775198 (ipc=299.7) sim_rate=267943 (inst/sec) elapsed = 0:0:01:25 / Tue Apr 16 16:55:57 2019
GPGPU-Sim PTX: 25600000 instructions simulated : ctaid=(3,10,0) tid=(24,1,0)
GPGPU-Sim PTX: 25700000 instructions simulated : ctaid=(0,17,0) tid=(21,3,0)
GPGPU-Sim PTX: 25800000 instructions simulated : ctaid=(2,7,0) tid=(10,1,0)
GPGPU-Sim PTX: 25900000 instructions simulated : ctaid=(1,9,0) tid=(28,3,0)
GPGPU-Sim uArch: cycles simulated: 77000  inst.: 23099520 (ipc=300.0) sim_rate=268599 (inst/sec) elapsed = 0:0:01:26 / Tue Apr 16 16:55:58 2019
GPGPU-Sim PTX: 26000000 instructions simulated : ctaid=(0,11,0) tid=(6,2,0)
GPGPU-Sim PTX: 26100000 instructions simulated : ctaid=(2,16,0) tid=(13,0,0)
GPGPU-Sim PTX: 26200000 instructions simulated : ctaid=(2,21,0) tid=(25,3,0)
GPGPU-Sim uArch: cycles simulated: 78000  inst.: 23379026 (ipc=299.7) sim_rate=268724 (inst/sec) elapsed = 0:0:01:27 / Tue Apr 16 16:55:59 2019
GPGPU-Sim PTX: 26300000 instructions simulated : ctaid=(0,15,0) tid=(12,1,0)
GPGPU-Sim PTX: 26400000 instructions simulated : ctaid=(1,4,0) tid=(25,2,0)
GPGPU-Sim PTX: 26500000 instructions simulated : ctaid=(1,5,0) tid=(10,1,0)
GPGPU-Sim uArch: cycles simulated: 79000  inst.: 23704035 (ipc=300.1) sim_rate=269364 (inst/sec) elapsed = 0:0:01:28 / Tue Apr 16 16:56:00 2019
GPGPU-Sim PTX: 26600000 instructions simulated : ctaid=(0,9,0) tid=(3,2,0)
GPGPU-Sim PTX: 26700000 instructions simulated : ctaid=(1,5,0) tid=(30,3,0)
GPGPU-Sim PTX: 26800000 instructions simulated : ctaid=(1,1,0) tid=(8,0,0)
GPGPU-Sim PTX: 26900000 instructions simulated : ctaid=(1,10,0) tid=(6,0,0)
GPGPU-Sim uArch: cycles simulated: 80000  inst.: 23979992 (ipc=299.7) sim_rate=269438 (inst/sec) elapsed = 0:0:01:29 / Tue Apr 16 16:56:01 2019
GPGPU-Sim PTX: 27000000 instructions simulated : ctaid=(2,14,0) tid=(20,1,0)
GPGPU-Sim PTX: 27100000 instructions simulated : ctaid=(1,16,0) tid=(9,3,0)
GPGPU-Sim PTX: 27200000 instructions simulated : ctaid=(1,13,0) tid=(0,3,0)
GPGPU-Sim uArch: cycles simulated: 81000  inst.: 24248113 (ipc=299.4) sim_rate=269423 (inst/sec) elapsed = 0:0:01:30 / Tue Apr 16 16:56:02 2019
GPGPU-Sim PTX: 27300000 instructions simulated : ctaid=(2,16,0) tid=(10,0,0)
GPGPU-Sim PTX: 27400000 instructions simulated : ctaid=(2,7,0) tid=(31,1,0)
GPGPU-Sim uArch: cycles simulated: 81500  inst.: 24423720 (ipc=299.7) sim_rate=268392 (inst/sec) elapsed = 0:0:01:31 / Tue Apr 16 16:56:03 2019
GPGPU-Sim PTX: 27500000 instructions simulated : ctaid=(1,7,0) tid=(2,3,0)
GPGPU-Sim PTX: 27600000 instructions simulated : ctaid=(2,10,0) tid=(26,1,0)
GPGPU-Sim PTX: 27700000 instructions simulated : ctaid=(2,20,0) tid=(4,1,0)
GPGPU-Sim PTX: 27800000 instructions simulated : ctaid=(1,22,0) tid=(1,2,0)
GPGPU-Sim uArch: cycles simulated: 83000  inst.: 24854845 (ipc=299.5) sim_rate=270161 (inst/sec) elapsed = 0:0:01:32 / Tue Apr 16 16:56:04 2019
GPGPU-Sim PTX: 27900000 instructions simulated : ctaid=(1,10,0) tid=(19,3,0)
GPGPU-Sim PTX: 28000000 instructions simulated : ctaid=(1,20,0) tid=(18,0,0)
GPGPU-Sim PTX: 28100000 instructions simulated : ctaid=(0,4,0) tid=(0,0,0)
GPGPU-Sim PTX: 28200000 instructions simulated : ctaid=(2,6,0) tid=(0,0,0)
GPGPU-Sim uArch: cycles simulated: 84000  inst.: 25155224 (ipc=299.5) sim_rate=270486 (inst/sec) elapsed = 0:0:01:33 / Tue Apr 16 16:56:05 2019
GPGPU-Sim PTX: 28300000 instructions simulated : ctaid=(3,11,0) tid=(0,3,0)
GPGPU-Sim PTX: 28400000 instructions simulated : ctaid=(2,8,0) tid=(15,3,0)
GPGPU-Sim PTX: 28500000 instructions simulated : ctaid=(1,0,0) tid=(4,2,0)
GPGPU-Sim uArch: cycles simulated: 85000  inst.: 25456141 (ipc=299.5) sim_rate=270810 (inst/sec) elapsed = 0:0:01:34 / Tue Apr 16 16:56:06 2019
GPGPU-Sim PTX: 28600000 instructions simulated : ctaid=(2,9,0) tid=(29,2,0)
GPGPU-Sim PTX: 28700000 instructions simulated : ctaid=(0,10,0) tid=(15,1,0)
GPGPU-Sim PTX: 28800000 instructions simulated : ctaid=(2,5,0) tid=(28,3,0)
GPGPU-Sim PTX: 28900000 instructions simulated : ctaid=(0,6,0) tid=(3,3,0)
GPGPU-Sim uArch: cycles simulated: 86000  inst.: 25767892 (ipc=299.6) sim_rate=271240 (inst/sec) elapsed = 0:0:01:35 / Tue Apr 16 16:56:07 2019
GPGPU-Sim PTX: 29000000 instructions simulated : ctaid=(1,8,0) tid=(27,0,0)
GPGPU-Sim PTX: 29100000 instructions simulated : ctaid=(2,0,0) tid=(11,0,0)
GPGPU-Sim PTX: 29200000 instructions simulated : ctaid=(0,7,0) tid=(3,1,0)
GPGPU-Sim uArch: cycles simulated: 87000  inst.: 26039429 (ipc=299.3) sim_rate=271244 (inst/sec) elapsed = 0:0:01:36 / Tue Apr 16 16:56:08 2019
GPGPU-Sim PTX: 29300000 instructions simulated : ctaid=(1,5,0) tid=(5,1,0)
GPGPU-Sim PTX: 29400000 instructions simulated : ctaid=(3,10,0) tid=(19,0,0)
GPGPU-Sim PTX: 29500000 instructions simulated : ctaid=(2,17,0) tid=(6,1,0)
GPGPU-Sim uArch: cycles simulated: 88000  inst.: 26372370 (ipc=299.7) sim_rate=271880 (inst/sec) elapsed = 0:0:01:37 / Tue Apr 16 16:56:09 2019
GPGPU-Sim PTX: 29600000 instructions simulated : ctaid=(1,6,0) tid=(16,0,0)
GPGPU-Sim PTX: 29700000 instructions simulated : ctaid=(2,3,0) tid=(2,2,0)
GPGPU-Sim uArch: cycles simulated: 88500  inst.: 26549688 (ipc=300.0) sim_rate=270915 (inst/sec) elapsed = 0:0:01:38 / Tue Apr 16 16:56:10 2019
GPGPU-Sim PTX: 29800000 instructions simulated : ctaid=(0,15,0) tid=(9,2,0)
GPGPU-Sim PTX: 29900000 instructions simulated : ctaid=(0,14,0) tid=(6,1,0)
GPGPU-Sim PTX: 30000000 instructions simulated : ctaid=(1,15,0) tid=(25,1,0)
GPGPU-Sim PTX: 30100000 instructions simulated : ctaid=(0,4,0) tid=(19,0,0)
GPGPU-Sim uArch: cycles simulated: 89500  inst.: 26823005 (ipc=299.7) sim_rate=270939 (inst/sec) elapsed = 0:0:01:39 / Tue Apr 16 16:56:11 2019
GPGPU-Sim PTX: 30200000 instructions simulated : ctaid=(2,1,0) tid=(6,2,0)
GPGPU-Sim PTX: 30300000 instructions simulated : ctaid=(0,6,0) tid=(12,0,0)
GPGPU-Sim PTX: 30400000 instructions simulated : ctaid=(1,5,0) tid=(0,2,0)
GPGPU-Sim uArch: cycles simulated: 90500  inst.: 27125878 (ipc=299.7) sim_rate=271258 (inst/sec) elapsed = 0:0:01:40 / Tue Apr 16 16:56:12 2019
GPGPU-Sim PTX: 30500000 instructions simulated : ctaid=(1,22,0) tid=(12,0,0)
GPGPU-Sim PTX: 30600000 instructions simulated : ctaid=(1,0,0) tid=(16,1,0)
GPGPU-Sim PTX: 30700000 instructions simulated : ctaid=(2,18,0) tid=(6,2,0)
GPGPU-Sim uArch: cycles simulated: 91500  inst.: 27437748 (ipc=299.9) sim_rate=271660 (inst/sec) elapsed = 0:0:01:41 / Tue Apr 16 16:56:13 2019
GPGPU-Sim PTX: 30800000 instructions simulated : ctaid=(0,17,0) tid=(27,0,0)
GPGPU-Sim PTX: 30900000 instructions simulated : ctaid=(1,13,0) tid=(30,1,0)
GPGPU-Sim uArch: cycles simulated: 92000  inst.: 27594809 (ipc=299.9) sim_rate=270537 (inst/sec) elapsed = 0:0:01:42 / Tue Apr 16 16:56:14 2019
GPGPU-Sim PTX: 31000000 instructions simulated : ctaid=(2,6,0) tid=(18,2,0)
GPGPU-Sim PTX: 31100000 instructions simulated : ctaid=(2,13,0) tid=(11,2,0)
GPGPU-Sim PTX: 31200000 instructions simulated : ctaid=(2,14,0) tid=(11,3,0)
GPGPU-Sim PTX: 31300000 instructions simulated : ctaid=(1,16,0) tid=(13,3,0)
GPGPU-Sim uArch: cycles simulated: 93000  inst.: 27886248 (ipc=299.9) sim_rate=270740 (inst/sec) elapsed = 0:0:01:43 / Tue Apr 16 16:56:15 2019
GPGPU-Sim PTX: 31400000 instructions simulated : ctaid=(0,7,0) tid=(30,2,0)
GPGPU-Sim PTX: 31500000 instructions simulated : ctaid=(2,2,0) tid=(20,0,0)
GPGPU-Sim uArch: cycles simulated: 93500  inst.: 28074910 (ipc=300.3) sim_rate=269951 (inst/sec) elapsed = 0:0:01:44 / Tue Apr 16 16:56:16 2019
GPGPU-Sim PTX: 31600000 instructions simulated : ctaid=(0,3,0) tid=(7,0,0)
GPGPU-Sim PTX: 31700000 instructions simulated : ctaid=(2,13,0) tid=(4,0,0)
GPGPU-Sim PTX: 31800000 instructions simulated : ctaid=(1,7,0) tid=(9,2,0)
GPGPU-Sim uArch: cycles simulated: 94500  inst.: 28353524 (ipc=300.0) sim_rate=270033 (inst/sec) elapsed = 0:0:01:45 / Tue Apr 16 16:56:17 2019
GPGPU-Sim PTX: 31900000 instructions simulated : ctaid=(0,9,0) tid=(7,3,0)
GPGPU-Sim PTX: 32000000 instructions simulated : ctaid=(2,11,0) tid=(3,2,0)
GPGPU-Sim PTX: 32100000 instructions simulated : ctaid=(1,11,0) tid=(19,3,0)
GPGPU-Sim uArch: cycles simulated: 95500  inst.: 28632825 (ipc=299.8) sim_rate=270120 (inst/sec) elapsed = 0:0:01:46 / Tue Apr 16 16:56:18 2019
GPGPU-Sim PTX: 32200000 instructions simulated : ctaid=(3,14,0) tid=(3,3,0)
GPGPU-Sim PTX: 32300000 instructions simulated : ctaid=(0,8,0) tid=(26,1,0)
GPGPU-Sim PTX: 32400000 instructions simulated : ctaid=(0,9,0) tid=(28,0,0)
GPGPU-Sim uArch: cycles simulated: 96500  inst.: 28894460 (ipc=299.4) sim_rate=270041 (inst/sec) elapsed = 0:0:01:47 / Tue Apr 16 16:56:19 2019
GPGPU-Sim PTX: 32500000 instructions simulated : ctaid=(0,12,0) tid=(17,1,0)
GPGPU-Sim PTX: 32600000 instructions simulated : ctaid=(2,11,0) tid=(29,0,0)
GPGPU-Sim PTX: 32700000 instructions simulated : ctaid=(2,2,0) tid=(9,1,0)
GPGPU-Sim PTX: 32800000 instructions simulated : ctaid=(1,1,0) tid=(12,2,0)
GPGPU-Sim uArch: cycles simulated: 97500  inst.: 29243722 (ipc=299.9) sim_rate=270775 (inst/sec) elapsed = 0:0:01:48 / Tue Apr 16 16:56:20 2019
GPGPU-Sim PTX: 32900000 instructions simulated : ctaid=(0,17,0) tid=(11,2,0)
GPGPU-Sim PTX: 33000000 instructions simulated : ctaid=(2,8,0) tid=(1,0,0)
GPGPU-Sim PTX: 33100000 instructions simulated : ctaid=(2,18,0) tid=(5,2,0)
GPGPU-Sim uArch: cycles simulated: 98500  inst.: 29517053 (ipc=299.7) sim_rate=270798 (inst/sec) elapsed = 0:0:01:49 / Tue Apr 16 16:56:21 2019
GPGPU-Sim PTX: 33200000 instructions simulated : ctaid=(2,2,0) tid=(6,1,0)
GPGPU-Sim PTX: 33300000 instructions simulated : ctaid=(2,9,0) tid=(9,1,0)
GPGPU-Sim uArch: cycles simulated: 99000  inst.: 29680353 (ipc=299.8) sim_rate=269821 (inst/sec) elapsed = 0:0:01:50 / Tue Apr 16 16:56:22 2019
GPGPU-Sim PTX: 33400000 instructions simulated : ctaid=(2,22,0) tid=(0,0,0)
GPGPU-Sim PTX: 33500000 instructions simulated : ctaid=(0,6,0) tid=(8,2,0)
GPGPU-Sim PTX: 33600000 instructions simulated : ctaid=(1,0,0) tid=(19,0,0)
GPGPU-Sim uArch: cycles simulated: 100000  inst.: 29974137 (ipc=299.7) sim_rate=270037 (inst/sec) elapsed = 0:0:01:51 / Tue Apr 16 16:56:23 2019
GPGPU-Sim PTX: 33700000 instructions simulated : ctaid=(2,15,0) tid=(3,3,0)
GPGPU-Sim PTX: 33800000 instructions simulated : ctaid=(0,8,0) tid=(18,2,0)
GPGPU-Sim PTX: 33900000 instructions simulated : ctaid=(0,3,0) tid=(29,1,0)
GPGPU-Sim PTX: 34000000 instructions simulated : ctaid=(1,14,0) tid=(18,0,0)
GPGPU-Sim uArch: cycles simulated: 101000  inst.: 30289637 (ipc=299.9) sim_rate=270443 (inst/sec) elapsed = 0:0:01:52 / Tue Apr 16 16:56:24 2019
GPGPU-Sim PTX: 34100000 instructions simulated : ctaid=(1,16,0) tid=(0,0,0)
GPGPU-Sim PTX: 34200000 instructions simulated : ctaid=(1,9,0) tid=(30,0,0)
GPGPU-Sim PTX: 34300000 instructions simulated : ctaid=(0,9,0) tid=(3,3,0)
GPGPU-Sim uArch: cycles simulated: 102000  inst.: 30612699 (ipc=300.1) sim_rate=270908 (inst/sec) elapsed = 0:0:01:53 / Tue Apr 16 16:56:25 2019
GPGPU-Sim PTX: 34400000 instructions simulated : ctaid=(2,2,0) tid=(14,1,0)
GPGPU-Sim PTX: 34500000 instructions simulated : ctaid=(2,3,0) tid=(1,0,0)
GPGPU-Sim PTX: 34600000 instructions simulated : ctaid=(2,9,0) tid=(31,2,0)
GPGPU-Sim uArch: cycles simulated: 103000  inst.: 30877729 (ipc=299.8) sim_rate=270857 (inst/sec) elapsed = 0:0:01:54 / Tue Apr 16 16:56:26 2019
GPGPU-Sim PTX: 34700000 instructions simulated : ctaid=(2,5,0) tid=(11,2,0)
GPGPU-Sim PTX: 34800000 instructions simulated : ctaid=(0,17,0) tid=(11,0,0)
GPGPU-Sim PTX: 34900000 instructions simulated : ctaid=(2,4,0) tid=(3,0,0)
GPGPU-Sim PTX: 35000000 instructions simulated : ctaid=(2,12,0) tid=(2,2,0)
GPGPU-Sim uArch: cycles simulated: 104000  inst.: 31207433 (ipc=300.1) sim_rate=271368 (inst/sec) elapsed = 0:0:01:55 / Tue Apr 16 16:56:27 2019
GPGPU-Sim PTX: 35100000 instructions simulated : ctaid=(2,3,0) tid=(6,1,0)
GPGPU-Sim uArch: cycles simulated: 104500  inst.: 31346751 (ipc=300.0) sim_rate=270230 (inst/sec) elapsed = 0:0:01:56 / Tue Apr 16 16:56:28 2019
GPGPU-Sim PTX: 35200000 instructions simulated : ctaid=(0,19,0) tid=(2,0,0)
GPGPU-Sim PTX: 35300000 instructions simulated : ctaid=(2,1,0) tid=(21,1,0)
GPGPU-Sim PTX: 35400000 instructions simulated : ctaid=(1,16,0) tid=(21,1,0)
GPGPU-Sim PTX: 35500000 instructions simulated : ctaid=(1,0,0) tid=(9,2,0)
GPGPU-Sim uArch: cycles simulated: 105500  inst.: 31679189 (ipc=300.3) sim_rate=270762 (inst/sec) elapsed = 0:0:01:57 / Tue Apr 16 16:56:29 2019
GPGPU-Sim PTX: 35600000 instructions simulated : ctaid=(2,8,0) tid=(12,0,0)
GPGPU-Sim PTX: 35700000 instructions simulated : ctaid=(1,12,0) tid=(6,3,0)
GPGPU-Sim PTX: 35800000 instructions simulated : ctaid=(1,20,0) tid=(13,0,0)
GPGPU-Sim PTX: 35900000 instructions simulated : ctaid=(1,4,0) tid=(10,0,0)
GPGPU-Sim uArch: cycles simulated: 106500  inst.: 31981825 (ipc=300.3) sim_rate=271032 (inst/sec) elapsed = 0:0:01:58 / Tue Apr 16 16:56:30 2019
GPGPU-Sim PTX: 36000000 instructions simulated : ctaid=(1,14,0) tid=(25,1,0)
GPGPU-Sim PTX: 36100000 instructions simulated : ctaid=(0,3,0) tid=(5,1,0)
GPGPU-Sim PTX: 36200000 instructions simulated : ctaid=(1,10,0) tid=(15,2,0)
GPGPU-Sim uArch: cycles simulated: 107500  inst.: 32324866 (ipc=300.7) sim_rate=271637 (inst/sec) elapsed = 0:0:01:59 / Tue Apr 16 16:56:31 2019
GPGPU-Sim PTX: 36300000 instructions simulated : ctaid=(3,6,0) tid=(10,2,0)
GPGPU-Sim PTX: 36400000 instructions simulated : ctaid=(0,14,0) tid=(29,0,0)
GPGPU-Sim uArch: cycles simulated: 108000  inst.: 32460046 (ipc=300.6) sim_rate=270500 (inst/sec) elapsed = 0:0:02:00 / Tue Apr 16 16:56:32 2019
GPGPU-Sim PTX: 36500000 instructions simulated : ctaid=(1,24,0) tid=(19,2,0)
GPGPU-Sim PTX: 36600000 instructions simulated : ctaid=(0,7,0) tid=(19,1,0)
GPGPU-Sim PTX: 36700000 instructions simulated : ctaid=(1,21,0) tid=(4,1,0)
GPGPU-Sim PTX: 36800000 instructions simulated : ctaid=(0,2,0) tid=(15,0,0)
GPGPU-Sim uArch: cycles simulated: 109000  inst.: 32783718 (ipc=300.8) sim_rate=270939 (inst/sec) elapsed = 0:0:02:01 / Tue Apr 16 16:56:33 2019
GPGPU-Sim PTX: 36900000 instructions simulated : ctaid=(2,10,0) tid=(25,1,0)
GPGPU-Sim PTX: 37000000 instructions simulated : ctaid=(1,12,0) tid=(31,3,0)
GPGPU-Sim PTX: 37100000 instructions simulated : ctaid=(2,9,0) tid=(6,3,0)
GPGPU-Sim uArch: cycles simulated: 110000  inst.: 33048336 (ipc=300.4) sim_rate=270888 (inst/sec) elapsed = 0:0:02:02 / Tue Apr 16 16:56:34 2019
GPGPU-Sim PTX: 37200000 instructions simulated : ctaid=(0,1,0) tid=(28,1,0)
GPGPU-Sim PTX: 37300000 instructions simulated : ctaid=(0,12,0) tid=(14,1,0)
GPGPU-Sim PTX: 37400000 instructions simulated : ctaid=(0,9,0) tid=(9,3,0)
GPGPU-Sim PTX: 37500000 instructions simulated : ctaid=(2,20,0) tid=(19,1,0)
GPGPU-Sim uArch: cycles simulated: 111000  inst.: 33400092 (ipc=300.9) sim_rate=271545 (inst/sec) elapsed = 0:0:02:03 / Tue Apr 16 16:56:35 2019
GPGPU-Sim PTX: 37600000 instructions simulated : ctaid=(3,6,0) tid=(10,2,0)
GPGPU-Sim PTX: 37700000 instructions simulated : ctaid=(2,2,0) tid=(18,0,0)
GPGPU-Sim uArch: cycles simulated: 112000  inst.: 33657009 (ipc=300.5) sim_rate=271427 (inst/sec) elapsed = 0:0:02:04 / Tue Apr 16 16:56:36 2019
GPGPU-Sim PTX: 37800000 instructions simulated : ctaid=(2,1,0) tid=(0,2,0)
GPGPU-Sim PTX: 37900000 instructions simulated : ctaid=(0,11,0) tid=(1,2,0)
GPGPU-Sim PTX: 38000000 instructions simulated : ctaid=(1,16,0) tid=(15,1,0)
GPGPU-Sim PTX: 38100000 instructions simulated : ctaid=(1,12,0) tid=(18,3,0)
GPGPU-Sim uArch: cycles simulated: 113000  inst.: 33977409 (ipc=300.7) sim_rate=271819 (inst/sec) elapsed = 0:0:02:05 / Tue Apr 16 16:56:37 2019
GPGPU-Sim PTX: 38200000 instructions simulated : ctaid=(1,12,0) tid=(20,0,0)
GPGPU-Sim PTX: 38300000 instructions simulated : ctaid=(2,3,0) tid=(24,0,0)
GPGPU-Sim PTX: 38400000 instructions simulated : ctaid=(0,3,0) tid=(2,2,0)
GPGPU-Sim uArch: cycles simulated: 114000  inst.: 34263714 (ipc=300.6) sim_rate=271934 (inst/sec) elapsed = 0:0:02:06 / Tue Apr 16 16:56:38 2019
GPGPU-Sim PTX: 38500000 instructions simulated : ctaid=(1,21,0) tid=(9,3,0)
GPGPU-Sim PTX: 38600000 instructions simulated : ctaid=(1,22,0) tid=(22,3,0)
GPGPU-Sim PTX: 38700000 instructions simulated : ctaid=(0,5,0) tid=(25,2,0)
GPGPU-Sim PTX: 38800000 instructions simulated : ctaid=(2,6,0) tid=(2,2,0)
GPGPU-Sim uArch: cycles simulated: 115000  inst.: 34555296 (ipc=300.5) sim_rate=272088 (inst/sec) elapsed = 0:0:02:07 / Tue Apr 16 16:56:39 2019
GPGPU-Sim PTX: 38900000 instructions simulated : ctaid=(3,1,0) tid=(2,0,0)
GPGPU-Sim PTX: 39000000 instructions simulated : ctaid=(1,15,0) tid=(31,2,0)
GPGPU-Sim PTX: 39100000 instructions simulated : ctaid=(1,21,0) tid=(24,0,0)
GPGPU-Sim uArch: cycles simulated: 116000  inst.: 34869440 (ipc=300.6) sim_rate=272417 (inst/sec) elapsed = 0:0:02:08 / Tue Apr 16 16:56:40 2019
GPGPU-Sim PTX: 39200000 instructions simulated : ctaid=(1,14,0) tid=(14,1,0)
GPGPU-Sim PTX: 39300000 instructions simulated : ctaid=(1,9,0) tid=(1,0,0)
GPGPU-Sim PTX: 39400000 instructions simulated : ctaid=(0,11,0) tid=(22,1,0)
GPGPU-Sim uArch: cycles simulated: 117000  inst.: 35168209 (ipc=300.6) sim_rate=272621 (inst/sec) elapsed = 0:0:02:09 / Tue Apr 16 16:56:41 2019
GPGPU-Sim PTX: 39500000 instructions simulated : ctaid=(1,6,0) tid=(16,1,0)
GPGPU-Sim PTX: 39600000 instructions simulated : ctaid=(1,17,0) tid=(29,2,0)
GPGPU-Sim PTX: 39700000 instructions simulated : ctaid=(1,2,0) tid=(22,0,0)
GPGPU-Sim PTX: 39800000 instructions simulated : ctaid=(2,6,0) tid=(22,0,0)
GPGPU-Sim uArch: cycles simulated: 118000  inst.: 35474409 (ipc=300.6) sim_rate=272880 (inst/sec) elapsed = 0:0:02:10 / Tue Apr 16 16:56:42 2019
GPGPU-Sim PTX: 39900000 instructions simulated : ctaid=(2,10,0) tid=(22,2,0)
GPGPU-Sim PTX: 40000000 instructions simulated : ctaid=(0,3,0) tid=(30,3,0)
GPGPU-Sim PTX: 40100000 instructions simulated : ctaid=(2,12,0) tid=(21,3,0)
GPGPU-Sim uArch: cycles simulated: 119000  inst.: 35785964 (ipc=300.7) sim_rate=273175 (inst/sec) elapsed = 0:0:02:11 / Tue Apr 16 16:56:43 2019
GPGPU-Sim PTX: 40200000 instructions simulated : ctaid=(1,1,0) tid=(9,2,0)
GPGPU-Sim PTX: 40300000 instructions simulated : ctaid=(1,20,0) tid=(3,2,0)
GPGPU-Sim PTX: 40400000 instructions simulated : ctaid=(1,4,0) tid=(24,3,0)
GPGPU-Sim uArch: cycles simulated: 120000  inst.: 36054021 (ipc=300.5) sim_rate=273136 (inst/sec) elapsed = 0:0:02:12 / Tue Apr 16 16:56:44 2019
GPGPU-Sim PTX: 40500000 instructions simulated : ctaid=(0,1,0) tid=(18,1,0)
[...]
maxmrqlatency = 459 
maxdqlatency = 0 
maxmflatency = 753 
averagemflatency = 203 
max_icnt2mem_latency = 118 
max_icnt2sh_latency = 273792 
mrq_lat_table:70712 	2725 	2174 	8943 	24371 	11930 	2621 	202 	19 	0 	0 	0 	0 	0 	0 	0 	0 	0 	0 	0 	0 	0 	0 	0 	0 	0 	0 	0 	0 	0 	0 	0 	
dq_lat_table:0 	0 	0 	0 	0 	0 	0 	0 	0 	0 	0 	0 	0 	0 	0 	0 	0 	0 	0 	0 	0 	0 	0 	0 	0 	0 	0 	0 	0 	0 	0 	0 	
mf_lat_table:0 	0 	0 	0 	0 	0 	0 	124993 	67997 	95 	0 	0 	0 	0 	0 	0 	0 	0 	0 	0 	0 	0 	0 	0 	0 	0 	0 	0 	0 	0 	0 	0 	
icnt2mem_lat_table:0 	0 	0 	146297 	42919 	4012 	67 	0 	0 	0 	0 	0 	0 	0 	0 	0 	0 	0 	0 	0 	0 	0 	0 	0 	
icnt2sh_lat_table:0 	0 	0 	56828 	56574 	13211 	222 	0 	0 	0 	0 	0 	1036 	2376 	4608 	8809 	18120 	30779 	522 	0 	0 	0 	0 	0 	
mf_lat_pw_table:0 	0 	0 	0 	0 	0 	0 	542 	4 	0 	0 	0 	0 	0 	0 	0 	0 	0 	0 	0 	0 	0 	0 	0 	0 	0 	0 	0 	0 	0 	0 	0 	
maximum concurrent accesses to same row:
dram[0]:        11         9        17        15        13        15        32        32        36        43        16        14        15        15        11        11 
dram[1]:        17        10         9        15        14        14        32        32        45        28        10        11        12        14        10        20 
dram[2]:        11        10        13        11        12        20        32        32        39        43        13        12        16        10        12        10 
dram[3]:        10        10        18        12        14        12        32        32        49        28        15        15        16        13        11        11 
dram[4]:        17        11        19        16        18        12        32        32        39        38        12        15        13        18         9        10 
dram[5]:        12         9        14        14        12        13        32        32        36        36        15        15        16        13        13        12 
maximum service time to same row:
dram[0]:     12194      8709     14447     14479     15225     15210     17859     18124     13572     13846      9344      6951      8426      8529     10854     11209 
dram[1]:     11899     12959     14479     14519     15331     15210     17935     18171     12844     13803      9739     11292      8440      8557     10865     11307 
dram[2]:     12312     12940     14474     14516     15337     15197     17293     17941     12836     11983      8183      8850      8816      8554     10865     11313 
dram[3]:     11382     12979     14462     14507     15253     15207     17900     18153     13259     12075      9653      6838      8438      8532     10857     11221 
dram[4]:     10734     12831     14509     14529     15350     15127     17925     18228     13313     13480     11431      9022      8460      8688     11157     11247 
dram[5]:      9763     12825     14503     14525     14571     14640     17955     17850     13632     12022      8047      8834      8513      8812     11175     11475 
average row accesses per activate:
dram[0]:  1.920060  1.866270  1.871345  1.902736  1.920060  1.976816  1.882353  2.034591  1.982379  2.086687  1.975794  1.993874  1.927928  1.979814  1.948012  2.020635 
dram[1]:  1.920540  1.919697  1.891369  1.937984  1.900149  1.904478  1.956325  1.950450  1.991111  2.014925  1.958271  1.920118  1.995312  2.000000  1.943077  1.938066 
dram[2]:  1.949231  1.949153  1.921093  1.847384  1.894502  1.990755  1.958271  1.918759  1.942280  2.013373  1.995427  2.020344  2.014196  1.942337  1.920060  1.895988 
dram[3]:  1.984472  1.886905  1.990521  1.915535  1.956790  1.900594  1.920236  1.984756  2.053681  1.923621  2.029595  1.950301  1.985937  1.889053  1.935285  1.990640 
dram[4]:  1.958075  1.922610  1.944012  1.927383  1.979751  1.879765  1.959153  1.898529  2.021148  2.035982  2.017028  1.937500  1.962906  2.036683  1.961479  1.935681 
dram[5]:  1.973228  1.899850  1.960815  1.928896  1.995320  1.882870  1.941529  1.992343  1.961765  1.944286  1.960725  1.934426  2.007874  2.001570  1.933535  1.903274 
average row locality = 123697/63356 = 1.952412
number of total memory accesses made:
dram[0]:         0         0         0         0         0         0         0         0         0         0         0         0         0         0         0         0 
dram[1]:         0         0         0         0         0         0         0         0         0         0         0         0         0         0         0         0 
dram[2]:         0         0         0         0         0         0         0         0         0         0         0         0         0         0         0         0 
dram[3]:         0         0         0         0         0         0         0         0         0         0         0         0         0         0         0         0 
dram[4]:         0         0         0         0         0         0         0         0         0         0         0         0         0         0         0         0 
dram[5]:         0         0         0         0         0         0         0         0         0         0         0         0         0         0         0         0 
total accesses: 0
min_bank_accesses = 0!
min_chip_accesses = 0!
number of total read accesses:
dram[0]:       676       670       684       664       682       680       707       707       707       699       689       686       684       678       679       672 
dram[1]:       680       677       678       668       686       681       703       703       704       701       694       688       684       678       672       674 
dram[2]:       675       676       676       671       686       689       707       709       698       701       687       684       681       678       678       670 
dram[3]:       676       678       670       673       680       683       703       708       695       705       682       685       676       675       669       678 
dram[4]:       672       679       663       675       676       689       705       704       698       708       682       689       682       671       670       672 
dram[5]:       668       683       667       674       683       693       705       707       692       708       679       693       675       678       672       684 
total reads: 65733
bank skew: 709/663 = 1.07
chip skew: 10971/10935 = 1.00
number of total write accesses:
dram[0]:       597       586       596       588       591       599       605       587       643       649       617       616       600       597       595       601 
dram[1]:       601       590       593       582       589       595       596       596       640       649       620       610       593       594       591       609 
dram[2]:       592       589       590       600       589       603       607       590       648       654       622       607       596       602       595       606 
dram[3]:       602       590       590       597       588       598       597       594       644       655       621       610       595       602       587       598 
dram[4]:       589       588       587       599       595       593       590       587       640       650       621       613       588       606       603       592 
dram[5]:       585       588       584       601       596       593       590       594       642       653       619       605       600       597       608       595 
total reads: 57964
bank skew: 655/582 = 1.13
chip skew: 9690/9641 = 1.01
average mf latency per bank:
dram[0]:        321       315       314       317       319       323       328       331       311       321       311       313       312       316       317       317
dram[1]:        315       314       315       319       315       320       331       329       319       316       314       313       312       313       315       317
dram[2]:        321       320       317       319       319       318       328       333       318       314       315       315       314       313       315       314
dram[3]:        315       317       320       316       323       320       331       326       318       312       318       314       315       317       312       314
dram[4]:        318       315       320       318       322       319       327       326       315       310       315       313       318       318       312       317
dram[5]:        317       313       317       317       323       321       328       329       315       309       313       317       312       317       315       315
maximum mf latency per bank:
dram[0]:        408       419       398       430       389       405       412       412       562       662       441       413       443       419       412       382
dram[1]:        414       405       397       387       499       374       382       411       601       659       391       443       389       373       385       420
dram[2]:        410       403       433       382       404       374       422       389       509       746       376       417       471       411       371       395
dram[3]:        393       389       430       377       407       409       411       404       680       667       425       401       425       398       395       409
dram[4]:        428       370       435       402       396       365       419       368       538       666       387       422       439       391       385       461
dram[5]:        437       396       486       477       409       386       398       426       753       601       379       411       372       419       407       397

Number of Memory Banks Accessed per Memory Operation per Warp (from 0):
0	0	0	0	0	0	0	0	0	0	0	0	0	0	0	0	0	0	0	0	0	0	0	0	0	0	0	0	0	0	0	0	0	0	0	0	0	0	0	0	0	0	0	0	0	0	0	0	0	0	0	0	0	0	0	0	0	0	0	0	0	0	0	0	0	0	0	0	0	0	0	0	0	0	0	0	0	0	0	0	0	0	0	0	0	0	0	0	0	0	0	0	0	0	0	0	
Average # of Memory Banks Accessed per Memory Operation per Warp=-nan

position of mrq chosen
0	0	0	0	0	0	0	0	0	0	0	0	0	0	0	0	

average position of mrq chosen = -nan
Memory Partition 0: 
Cache L2_bank_000:
MSHR contents

Cache L2_bank_001:
MSHR contents

In Dram Latency Queue (total = 0): 
DRAM[0]: 16 bks, busW=4 BL=8 CL=12, tRRD=2 tCCD=6, tRCD=12 tRAS=28 tRP=12 tRC=40
n_cmd=361406 n_nop=302267 n_act=10556 n_pre=10540 n_req=20631 n_rd=21928 n_write=16115 bw_util=0.2105
n_activity=275612 dram_eff=0.2761
bk0: 1352a 328988i bk1: 1340a 329540i bk2: 1368a 328592i bk3: 1328a 329641i bk4: 1364a 329810i bk5: 1360a 329513i bk6: 1414a 327824i bk7: 1414a 329575i bk8: 1414a 327733i bk9: 1398a 328688i bk10: 1378a 328455i bk11: 1372a 329495i bk12: 1368a 329059i bk13: 1356a 329546i bk14: 1358a 329070i bk15: 1344a 329754i 
dram_util_bins: 0 0 0 0 0 0 0 0 0 0
dram_eff_bins: 0 0 0 0 0 0 0 0 0 0
mrqq: max=16 avg=0.828071
Memory Partition 1: 
Cache L2_bank_002:
MSHR contents

Cache L2_bank_003:
MSHR contents

In Dram Latency Queue (total = 0): 
DRAM[1]: 16 bks, busW=4 BL=8 CL=12, tRRD=2 tCCD=6, tRCD=12 tRAS=28 tRP=12 tRC=40
n_cmd=361406 n_nop=302207 n_act=10595 n_pre=10579 n_req=20619 n_rd=21942 n_write=16083 bw_util=0.2104
n_activity=275033 dram_eff=0.2765
bk0: 1360a 329214i bk1: 1354a 329998i bk2: 1356a 329238i bk3: 1336a 329746i bk4: 1372a 328611i bk5: 1362a 328426i bk6: 1406a 328831i bk7: 1406a 328492i bk8: 1408a 328272i bk9: 1402a 328175i bk10: 1388a 327940i bk11: 1376a 328065i bk12: 1368a 329479i bk13: 1356a 329377i bk14: 1344a 329959i bk15: 1348a 328833i 
dram_util_bins: 0 0 0 0 0 0 0 0 0 0
dram_eff_bins: 0 0 0 0 0 0 0 0 0 0
mrqq: max=16 avg=0.849078
Memory Partition 2: 
Cache L2_bank_004:
MSHR contents

Cache L2_bank_005:
MSHR contents

In Dram Latency Queue (total = 0): 
DRAM[2]: 16 bks, busW=4 BL=8 CL=12, tRRD=2 tCCD=6, tRCD=12 tRAS=28 tRP=12 tRC=40
n_cmd=361406 n_nop=302117 n_act=10606 n_pre=10590 n_req=20656 n_rd=21932 n_write=16161 bw_util=0.2108
n_activity=275013 dram_eff=0.277
bk0: 1350a 330001i bk1: 1352a 329802i bk2: 1352a 329760i bk3: 1342a 328535i bk4: 1372a 328266i bk5: 1378a 329288i bk6: 1414a 327710i bk7: 1418a 327881i bk8: 1396a 327846i bk9: 1402a 327826i bk10: 1374a 329343i bk11: 1368a 329362i bk12: 1362a 330422i bk13: 1356a 329405i bk14: 1356a 329115i bk15: 1340a 328476i 
dram_util_bins: 0 0 0 0 0 0 0 0 0 0
dram_eff_bins: 0 0 0 0 0 0 0 0 0 0
mrqq: max=16 avg=0.850074
Memory Partition 3: 
Cache L2_bank_006:
MSHR contents

Cache L2_bank_007:
MSHR contents
MSHR: tag=0x807a0580, atomic=0 1 entries : 0x7fae38e445d0 :  mf: uid=4011511, sid03:w24, part=3, addr=0x807a0580, load , size=128, unknown  status = IN_PARTITION_DRAM (273788), 

In Dram Latency Queue (total = 0): 
DRAM[3]: 16 bks, busW=4 BL=8 CL=12, tRRD=2 tCCD=6, tRCD=12 tRAS=28 tRP=12 tRC=40
n_cmd=361406 n_nop=302348 n_act=10538 n_pre=10522 n_req=20604 n_rd=21872 n_write=16126 bw_util=0.2103
n_activity=274317 dram_eff=0.277
bk0: 1352a 329850i bk1: 1356a 329106i bk2: 1340a 329773i bk3: 1346a 329278i bk4: 1360a 330042i bk5: 1366a 329045i bk6: 1406a 328426i bk7: 1416a 328556i bk8: 1390a 328123i bk9: 1410a 327117i bk10: 1364a 328961i bk11: 1370a 328933i bk12: 1352a 329815i bk13: 1350a 328812i bk14: 1338a 329928i bk15: 1356a 329152i 
dram_util_bins: 0 0 0 0 0 0 0 0 0 0
dram_eff_bins: 0 0 0 0 0 0 0 0 0 0
mrqq: max=16 avg=0.869482
Memory Partition 4: 
Cache L2_bank_008:
MSHR contents

Cache L2_bank_009:
MSHR contents

In Dram Latency Queue (total = 0): 
DRAM[4]: 16 bks, busW=4 BL=8 CL=12, tRRD=2 tCCD=6, tRCD=12 tRAS=28 tRP=12 tRC=40
n_cmd=361406 n_nop=302486 n_act=10495 n_pre=10479 n_req=20576 n_rd=21870 n_write=16076 bw_util=0.21
n_activity=274501 dram_eff=0.2765
bk0: 1344a 330596i bk1: 1358a 329626i bk2: 1326a 329814i bk3: 1350a 328853i bk4: 1352a 330096i bk5: 1378a 328921i bk6: 1410a 328518i bk7: 1408a 328394i bk8: 1396a 328254i bk9: 1416a 327867i bk10: 1364a 328821i bk11: 1378a 327978i bk12: 1364a 329691i bk13: 1342a 329288i bk14: 1340a 329681i bk15: 1344a 329165i 
dram_util_bins: 0 0 0 0 0 0 0 0 0 0
dram_eff_bins: 0 0 0 0 0 0 0 0 0 0
mrqq: max=16 avg=0.853403
Memory Partition 5: 
Cache L2_bank_010:
MSHR contents

Cache L2_bank_011:
MSHR contents

In Dram Latency Queue (total = 0): 
DRAM[5]: 16 bks, busW=4 BL=8 CL=12, tRRD=2 tCCD=6, tRCD=12 tRAS=28 tRP=12 tRC=40
n_cmd=361406 n_nop=302280 n_act=10566 n_pre=10550 n_req=20611 n_rd=21922 n_write=16088 bw_util=0.2103
n_activity=276002 dram_eff=0.2754
bk0: 1336a 330513i bk1: 1366a 329134i bk2: 1334a 330486i bk3: 1348a 329535i bk4: 1366a 329606i bk5: 1386a 328494i bk6: 1410a 328816i bk7: 1414a 328851i bk8: 1384a 328039i bk9: 1416a 327545i bk10: 1358a 329483i bk11: 1386a 328444i bk12: 1350a 329685i bk13: 1356a 329860i bk14: 1344a 328710i bk15: 1368a 328224i 
dram_util_bins: 0 0 0 0 0 0 0 0 0 0
dram_eff_bins: 0 0 0 0 0 0 0 0 0 0
mrqq: max=16 avg=0.849352

========= L2 cache stats =========
L2_cache_bank[0]: Access = 16128, Miss = 5508, Miss_rate = 0.342, Pending_hits = 638, Reservation_fails = 341
L2_cache_bank[1]: Access = 16163, Miss = 5456, Miss_rate = 0.338, Pending_hits = 621, Reservation_fails = 2
L2_cache_bank[2]: Access = 16090, Miss = 5501, Miss_rate = 0.342, Pending_hits = 581, Reservation_fails = 200
L2_cache_bank[3]: Access = 16069, Miss = 5470, Miss_rate = 0.340, Pending_hits = 633, Reservation_fails = 0
L2_cache_bank[4]: Access = 16170, Miss = 5488, Miss_rate = 0.339, Pending_hits = 620, Reservation_fails = 169
L2_cache_bank[5]: Access = 16159, Miss = 5478, Miss_rate = 0.339, Pending_hits = 633, Reservation_fails = 0
L2_cache_bank[6]: Access = 16098, Miss = 5451, Miss_rate = 0.339, Pending_hits = 604, Reservation_fails = 193
L2_cache_bank[7]: Access = 16071, Miss = 5485, Miss_rate = 0.341, Pending_hits = 619, Reservation_fails = 0
L2_cache_bank[8]: Access = 16132, Miss = 5448, Miss_rate = 0.338, Pending_hits = 583, Reservation_fails = 14
L2_cache_bank[9]: Access = 16053, Miss = 5487, Miss_rate = 0.342, Pending_hits = 622, Reservation_fails = 0
L2_cache_bank[10]: Access = 16090, Miss = 5441, Miss_rate = 0.338, Pending_hits = 591, Reservation_fails = 0
L2_cache_bank[11]: Access = 16072, Miss = 5520, Miss_rate = 0.343, Pending_hits = 626, Reservation_fails = 1
L2_total_cache_accesses = 193295
L2_total_cache_misses = 65733
L2_total_cache_miss_rate = 0.3401
L2_total_cache_pending_hits = 7371
L2_total_cache_reservation_fails = 920
L2_total_cache_breakdown:
	L2_cache_stats_breakdown[GLOBAL_ACC_R][HIT] = 89070
	L2_cache_stats_breakdown[GLOBAL_ACC_R][HIT_RESERVED] = 4208
	L2_cache_stats_breakdown[GLOBAL_ACC_R][MISS] = 33542
	L2_cache_stats_breakdown[GLOBAL_ACC_R][RESERVATION_FAIL] = 1
	L2_cache_stats_breakdown[CONST_ACC_R][HIT] = 11
	L2_cache_stats_breakdown[CONST_ACC_R][HIT_RESERVED] = 3
	L2_cache_stats_breakdown[CONST_ACC_R][MISS] = 1
	L2_cache_stats_breakdown[CONST_ACC_R][RESERVATION_FAIL] = 108
	L2_cache_stats_breakdown[GLOBAL_ACC_W][HIT] = 30952
	L2_cache_stats_breakdown[GLOBAL_ACC_W][HIT_RESERVED] = 3122
	L2_cache_stats_breakdown[GLOBAL_ACC_W][MISS] = 32176
	L2_cache_stats_breakdown[GLOBAL_ACC_W][RESERVATION_FAIL] = 5
	L2_cache_stats_breakdown[INST_ACC_R][HIT] = 158
	L2_cache_stats_breakdown[INST_ACC_R][HIT_RESERVED] = 38
	L2_cache_stats_breakdown[INST_ACC_R][MISS] = 14
	L2_cache_stats_breakdown[INST_ACC_R][RESERVATION_FAIL] = 806
L2_cache_data_port_util = 0.146
L2_cache_fill_port_util = 0.080

icnt_total_pkts_mem_to_simt=701445
icnt_total_pkts_simt_to_mem=353295
LD_mem_lat_dist  0 0 0 0 0 0 0 0 0 0 0 0 0 0 0 0 0 0 0 0 0 0 0 0 0 0 0
ST_mem_lat_dist  0 0 0 0 0 0 0 0 0 0 0 0 0 0 0 0 0 0 0 0 0 0 0 0 0 0 0
----------------------------Interconnect-DETAILS--------------------------------
Class 0:
Packet latency average = 12.8276
	minimum = 6
	maximum = 96
Network latency average = 11.4976
	minimum = 6
	maximum = 86
Slowest packet = 1526
Flit latency average = 10.2885
	minimum = 6
	maximum = 82
Slowest flit = 346229
Fragmentation average = 0
	minimum = 0
	maximum = 0
Injected packet rate average = 0.0522955
	minimum = 0.040012 (at node 13)
	maximum = 0.0590592 (at node 19)
Accepted packet rate average = 0.0522955
	minimum = 0.040012 (at node 13)
	maximum = 0.0590592 (at node 19)
Injected flit rate average = 0.142679
	minimum = 0.072153 (at node 13)
	maximum = 0.214637 (at node 19)
Accepted flit rate average= 0.142679
	minimum = 0.107315 (at node 24)
	maximum = 0.189315 (at node 7)
Injected packet length average = 2.72832
Accepted packet length average = 2.72832
Total in-flight flits = 0 (0 measured)
====== Overall Traffic Statistics ======
====== Traffic class 0 ======
Packet latency average = 12.8276 (1 samples)
	minimum = 6 (1 samples)
	maximum = 96 (1 samples)
Network latency average = 11.4976 (1 samples)
	minimum = 6 (1 samples)
	maximum = 86 (1 samples)
Flit latency average = 10.2885 (1 samples)
	minimum = 6 (1 samples)
	maximum = 82 (1 samples)
Fragmentation average = 0 (1 samples)
	minimum = 0 (1 samples)
	maximum = 0 (1 samples)
Injected packet rate average = 0.0522955 (1 samples)
	minimum = 0.040012 (1 samples)
	maximum = 0.0590592 (1 samples)
Accepted packet rate average = 0.0522955 (1 samples)
	minimum = 0.040012 (1 samples)
	maximum = 0.0590592 (1 samples)
Injected flit rate average = 0.142679 (1 samples)
	minimum = 0.072153 (1 samples)
	maximum = 0.214637 (1 samples)
Accepted flit rate average = 0.142679 (1 samples)
	minimum = 0.107315 (1 samples)
	maximum = 0.189315 (1 samples)
Injected packet size average = 2.72832 (1 samples)
Accepted packet size average = 2.72832 (1 samples)
Hops average = 1 (1 samples)
----------------------------END-of-Interconnect-DETAILS-------------------------


gpgpu_simulation_time = 0 days, 0 hrs, 4 min, 8 sec (248 sec)
gpgpu_simulation_rate = 293192 (inst/sec)
gpgpu_simulation_rate = 1104 (cycle/sec)
GPGPU-Sim: synchronize waiting for inactive GPU simulation
GPGPU-Sim API: Stream Manager State
GPGPU-Sim: detected inactive GPU simulation thread

1x GPU_laplace3d: 247777.703125 (ms) 

Copy u2 to host: 133.419998 (ms) 

1x Gold_laplace3d: 21.722000 (ms) 
 

 rms error = 0.000000 
CUDA_SAFE_CALL( cudaFree(d_u1) );
CUDA_SAFE_CALL( cudaFree(d_u2) );
free(h_u1);
free(h_u2);
free(h_u3);

Press ENTER to exit...
