

        *** GPGPU-Sim Simulator Version 3.2.2  [build 0] ***


GPGPU-Sim PTX: simulation mode 0 (can change with PTX_SIM_MODE_FUNC environment variable:
               1=functional simulation only, 0=detailed performance simulator)
GPGPU-Sim: Configuration options:

-network_mode                           1 # Interconnection network mode
-inter_config_file   config_fermi_islip.icnt # Interconnection network config file
-gpgpu_ptx_use_cuobjdump                    1 # Use cuobjdump to extract ptx and sass from binaries
-gpgpu_experimental_lib_support                    0 # Try to extract code from cuda libraries [Broken because of unknown cudaGetExportTable]
-gpgpu_ptx_convert_to_ptxplus                    0 # Convert SASS (native ISA) to ptxplus and run ptxplus
-gpgpu_ptx_force_max_capability                   20 # Force maximum compute capability
-gpgpu_ptx_inst_debug_to_file                    0 # Dump executed instructions' debug information to file
-gpgpu_ptx_inst_debug_file       inst_debug.txt # Executed instructions' debug output file
-gpgpu_ptx_inst_debug_thread_uid                    1 # Thread UID for executed instructions' debug output
-gpgpu_simd_model                       1 # 1 = post-dominator
-gpgpu_shader_core_pipeline              1536:32 # shader core pipeline config, i.e., {<nthread>:<warpsize>}
-gpgpu_tex_cache:l1  4:128:24,L:R:m:N:L,F:128:4,128:2 # per-shader L1 texture cache  (READ-ONLY) config  {<nsets>:<bsize>:<assoc>,<rep>:<wr>:<alloc>:<wr_alloc>,<mshr>:<N>:<merge>,<mq>:<rf>}
-gpgpu_const_cache:l1 64:64:2,L:R:f:N:L,A:2:32,4 # per-shader L1 constant memory cache  (READ-ONLY) config  {<nsets>:<bsize>:<assoc>,<rep>:<wr>:<alloc>:<wr_alloc>,<mshr>:<N>:<merge>,<mq>} 
-gpgpu_cache:il1     4:128:4,L:R:f:N:L,A:2:32,4 # shader L1 instruction cache config  {<nsets>:<bsize>:<assoc>,<rep>:<wr>:<alloc>:<wr_alloc>,<mshr>:<N>:<merge>,<mq>} 
-gpgpu_cache:dl1     64:128:4,L:L:m:N:H,A:32:8,8 # per-shader L1 data cache config  {<nsets>:<bsize>:<assoc>,<rep>:<wr>:<alloc>:<wr_alloc>,<mshr>:<N>:<merge>,<mq> | none}
-gpgpu_cache:dl1PrefL1                 none # per-shader L1 data cache config  {<nsets>:<bsize>:<assoc>,<rep>:<wr>:<alloc>:<wr_alloc>,<mshr>:<N>:<merge>,<mq> | none}
-gpgpu_cache:dl1PreShared                 none # per-shader L1 data cache config  {<nsets>:<bsize>:<assoc>,<rep>:<wr>:<alloc>:<wr_alloc>,<mshr>:<N>:<merge>,<mq> | none}
-gmem_skip_L1D                          0 # global memory access skip L1D cache (implements -Xptxas -dlcm=cg, default=no skip)
-gpgpu_perfect_mem                      0 # enable perfect memory mode (no cache miss)
-n_regfile_gating_group                    4 # group of lanes that should be read/written together)
-gpgpu_clock_gated_reg_file                    0 # enable clock gated reg file for power calculations
-gpgpu_clock_gated_lanes                    0 # enable clock gated lanes for power calculations
-gpgpu_shader_registers                32768 # Number of registers per shader core. Limits number of concurrent CTAs. (default 8192)
-gpgpu_shader_cta                       8 # Maximum number of concurrent CTAs in shader (default 8)
-gpgpu_num_cta_barriers                   16 # Maximum number of named barriers per CTA (default 16)
-gpgpu_n_clusters                      15 # number of processing clusters
-gpgpu_n_cores_per_cluster                    1 # number of simd cores per cluster
-gpgpu_n_cluster_ejection_buffer_size                    8 # number of packets in ejection buffer
-gpgpu_n_ldst_response_buffer_size                    2 # number of response packets in ld/st unit ejection buffer
-gpgpu_shmem_size                   16384 # Size of shared memory per shader core (default 16kB)
-gpgpu_shmem_size                   49152 # Size of shared memory per shader core (default 16kB)
-gpgpu_shmem_size_PrefL1                16384 # Size of shared memory per shader core (default 16kB)
-gpgpu_shmem_size_PrefShared                16384 # Size of shared memory per shader core (default 16kB)
-gpgpu_shmem_num_banks                   32 # Number of banks in the shared memory in each shader core (default 16)
-gpgpu_shmem_limited_broadcast                    0 # Limit shared memory to do one broadcast per cycle (default on)
-gpgpu_shmem_warp_parts                    1 # Number of portions a warp is divided into for shared memory bank conflict check 
-gpgpu_warpdistro_shader                   -1 # Specify which shader core to collect the warp size distribution from
-gpgpu_warp_issue_shader                    0 # Specify which shader core to collect the warp issue distribution from
-gpgpu_local_mem_map                    1 # Mapping from local memory space address to simulated GPU physical address space (default = enabled)
-gpgpu_num_reg_banks                   16 # Number of register banks (default = 8)
-gpgpu_reg_bank_use_warp_id                    0 # Use warp ID in mapping registers to banks (default = off)
-gpgpu_operand_collector_num_units_sp                    6 # number of collector units (default = 4)
-gpgpu_operand_collector_num_units_sfu                    8 # number of collector units (default = 4)
-gpgpu_operand_collector_num_units_mem                    2 # number of collector units (default = 2)
-gpgpu_operand_collector_num_units_gen                    0 # number of collector units (default = 0)
-gpgpu_operand_collector_num_in_ports_sp                    2 # number of collector unit in ports (default = 1)
-gpgpu_operand_collector_num_in_ports_sfu                    1 # number of collector unit in ports (default = 1)
-gpgpu_operand_collector_num_in_ports_mem                    1 # number of collector unit in ports (default = 1)
-gpgpu_operand_collector_num_in_ports_gen                    0 # number of collector unit in ports (default = 0)
-gpgpu_operand_collector_num_out_ports_sp                    2 # number of collector unit in ports (default = 1)
-gpgpu_operand_collector_num_out_ports_sfu                    1 # number of collector unit in ports (default = 1)
-gpgpu_operand_collector_num_out_ports_mem                    1 # number of collector unit in ports (default = 1)
-gpgpu_operand_collector_num_out_ports_gen                    0 # number of collector unit in ports (default = 0)
-gpgpu_coalesce_arch                   13 # Coalescing arch (default = 13, anything else is off for now)
-gpgpu_num_sched_per_core                    2 # Number of warp schedulers per core
-gpgpu_max_insn_issue_per_warp                    1 # Max number of instructions that can be issued per warp in one cycle by scheduler
-gpgpu_simt_core_sim_order                    1 # Select the simulation order of cores in a cluster (0=Fix, 1=Round-Robin)
-gpgpu_pipeline_widths        2,1,1,2,1,1,2 # Pipeline widths ID_OC_SP,ID_OC_SFU,ID_OC_MEM,OC_EX_SP,OC_EX_SFU,OC_EX_MEM,EX_WB
-gpgpu_num_sp_units                     2 # Number of SP units (default=1)
-gpgpu_num_sfu_units                    1 # Number of SF units (default=1)
-gpgpu_num_mem_units                    1 # Number if ldst units (default=1) WARNING: not hooked up to anything
-gpgpu_scheduler                      gto # Scheduler configuration: < lrr | gto | two_level_active > If two_level_active:<num_active_warps>:<inner_prioritization>:<outer_prioritization>For complete list of prioritization values see shader.h enum scheduler_prioritization_typeDefault: gto
-gpgpu_dram_scheduler                    1 # 0 = fifo, 1 = FR-FCFS (defaul)
-gpgpu_dram_partition_queues              8:8:8:8 # i2$:$2d:d2$:$2i
-l2_ideal                               0 # Use a ideal L2 cache that always hit
-gpgpu_cache:dl2     64:128:8,L:B:m:W:L,A:32:4,4:0,32 # unified banked L2 data cache config  {<nsets>:<bsize>:<assoc>,<rep>:<wr>:<alloc>:<wr_alloc>,<mshr>:<N>:<merge>,<mq>}
-gpgpu_cache:dl2_texture_only                    0 # L2 cache used for texture only
-gpgpu_n_mem                            6 # number of memory modules (e.g. memory controllers) in gpu
-gpgpu_n_sub_partition_per_mchannel                    2 # number of memory subpartition in each memory module
-gpgpu_n_mem_per_ctrlr                    2 # number of memory chips per memory controller
-gpgpu_memlatency_stat                   14 # track and display latency statistics 0x2 enables MC, 0x4 enables queue logs
-gpgpu_frfcfs_dram_sched_queue_size                   16 # 0 = unlimited (default); # entries per chip
-gpgpu_dram_return_queue_size                  116 # 0 = unlimited (default); # entries per chip
-gpgpu_dram_buswidth                    4 # default = 4 bytes (8 bytes per cycle at DDR)
-gpgpu_dram_burst_length                    8 # Burst length of each DRAM request (default = 4 data bus cycle)
-dram_data_command_freq_ratio                    4 # Frequency ratio between DRAM data bus and command bus (default = 2 times, i.e. DDR)
-gpgpu_dram_timing_opt nbk=16:CCD=2:RRD=6:RCD=12:RAS=28:RP=12:RC=40: CL=12:WL=4:CDLR=5:WR=12:nbkgrp=4:CCDL=3:RTPL=2 # DRAM timing parameters = {nbk:tCCD:tRRD:tRCD:tRAS:tRP:tRC:CL:WL:tCDLR:tWR:nbkgrp:tCCDL:tRTPL}
-rop_latency                          120 # ROP queue latency (default 85)
-dram_latency                         100 # DRAM latency (default 30)
-gpgpu_mem_addr_mapping dramid@8;00000000.00000000.00000000.00000000.0000RRRR.RRRRRRRR.BBBCCCCB.CCSSSSSS # mapping memory address to dram model {dramid@<start bit>;<memory address map>}
-gpgpu_mem_addr_test                    0 # run sweep test to check address mapping for aliased address
-gpgpu_mem_address_mask                    1 # 0 = old addressing mask, 1 = new addressing mask, 2 = new add. mask + flipped bank sel and chip sel bits
-gpuwattch_xml_file  gpuwattch_gtx480.xml # GPUWattch XML file
-power_simulation_enabled                    1 # Turn on power simulator (1=On, 0=Off)
-power_per_cycle_dump                    0 # Dump detailed power output each cycle
-power_trace_enabled                    0 # produce a file for the power trace (1=On, 0=Off)
-power_trace_zlevel                     6 # Compression level of the power trace output log (0=no comp, 9=highest)
-steady_power_levels_enabled                    0 # produce a file for the steady power levels (1=On, 0=Off)
-steady_state_definition                  8:4 # allowed deviation:number of samples
-gpgpu_max_cycle                        0 # terminates gpu simulation early (0 = no limit)
-gpgpu_max_insn                         0 # terminates gpu simulation early (0 = no limit)
-gpgpu_max_cta                          0 # terminates gpu simulation early (0 = no limit)
-gpgpu_runtime_stat                   500 # display runtime statistics such as dram utilization {<freq>:<flag>}
-liveness_message_freq                    1 # Minimum number of seconds between simulation liveness messages (0 = always print)
-gpgpu_flush_l1_cache                    0 # Flush L1 cache at the end of each kernel call
-gpgpu_flush_l2_cache                    0 # Flush L2 cache at the end of each kernel call
-gpgpu_deadlock_detect                    1 # Stop the simulation at deadlock (1=on (default), 0=off)
-gpgpu_ptx_instruction_classification                    0 # if enabled will classify ptx instruction types per kernel (Max 255 kernels now)
-gpgpu_ptx_sim_mode                     0 # Select between Performance (default) or Functional simulation (1)
-gpgpu_clock_domains 700.0:700.0:700.0:924.0 # Clock Domain Frequencies in MhZ {<Core Clock>:<ICNT Clock>:<L2 Clock>:<DRAM Clock>}
-gpgpu_max_concurrent_kernel                    8 # maximum kernels that can run concurrently on GPU
-gpgpu_cflog_interval                    0 # Interval between each snapshot in control flow logger
-visualizer_enabled                     0 # Turn on visualizer output (1=On, 0=Off)
-visualizer_outputfile                 NULL # Specifies the output log file for visualizer
-visualizer_zlevel                      6 # Compression level of the visualizer output log (0=no comp, 9=highest)
-trace_enabled                          0 # Turn on traces
-trace_components                    none # comma seperated list of traces to enable. Complete list found in trace_streams.tup. Default none
-trace_sampling_core                    0 # The core which is printed using CORE_DPRINTF. Default 0
-trace_sampling_memory_partition                   -1 # The memory partition which is printed using MEMPART_DPRINTF. Default -1 (i.e. all)
-enable_ptx_file_line_stats                    1 # Turn on PTX source line statistic profiling. (1 = On)
-ptx_line_stats_filename gpgpu_inst_stats.txt # Output file for PTX source line statistics.
-save_embedded_ptx                      0 # saves ptx files embedded in binary as <n>.ptx
-keep                                   0 # keep intermediate files created by GPGPU-Sim when interfacing with external programs
-gpgpu_ptx_save_converted_ptxplus                    0 # Saved converted ptxplus to a file
-ptx_opcode_latency_int         4,13,4,5,145 # Opcode latencies for integers <ADD,MAX,MUL,MAD,DIV>Default 1,1,19,25,145
-ptx_opcode_latency_fp          4,13,4,5,39 # Opcode latencies for single precision floating points <ADD,MAX,MUL,MAD,DIV>Default 1,1,1,1,30
-ptx_opcode_latency_dp         8,19,8,8,330 # Opcode latencies for double precision floating points <ADD,MAX,MUL,MAD,DIV>Default 8,8,8,8,335
-ptx_opcode_initiation_int            1,2,2,1,8 # Opcode initiation intervals for integers <ADD,MAX,MUL,MAD,DIV>Default 1,1,4,4,32
-ptx_opcode_initiation_fp            1,2,1,1,4 # Opcode initiation intervals for single precision floating points <ADD,MAX,MUL,MAD,DIV>Default 1,1,1,1,5
-ptx_opcode_initiation_dp         8,16,8,8,130 # Opcode initiation intervals for double precision floating points <ADD,MAX,MUL,MAD,DIV>Default 8,8,8,8,130
DRAM Timing Options:
nbk                                    16 # number of banks
CCD                                     2 # column to column delay
RRD                                     6 # minimal delay between activation of rows in different banks
RCD                                    12 # row to column delay
RAS                                    28 # time needed to activate row
RP                                     12 # time needed to precharge (deactivate) row
RC                                     40 # row cycle time
CDLR                                    5 # switching from write to read (changes tWTR)
WR                                     12 # last data-in to row precharge
CL                                     12 # CAS latency
WL                                      4 # Write latency
nbkgrp                                  4 # number of bank groups
CCDL                                    3 # column to column delay between accesses to different bank groups
RTPL                                    2 # read to precharge delay between accesses to different bank groups
Total number of memory sub partition = 12
addr_dec_mask[CHIP]  = 0000000000000000 	high:64 low:0
addr_dec_mask[BK]    = 000000000000e100 	high:16 low:8
addr_dec_mask[ROW]   = 000000000fff0000 	high:28 low:16
addr_dec_mask[COL]   = 0000000000001eff 	high:13 low:0
addr_dec_mask[BURST] = 000000000000003f 	high:6 low:0
sub_partition_id_mask = 0000000000000100
GPGPU-Sim uArch: clock freqs: 700000000.000000:700000000.000000:700000000.000000:924000000.000000
GPGPU-Sim uArch: clock periods: 0.00000000142857142857:0.00000000142857142857:0.00000000142857142857:0.00000000108225108225
*** Initializing Memory Statistics ***
GPGPU-Sim uArch: interconnect node map (shaderID+MemID to icntID)
GPGPU-Sim uArch: Memory nodes ID start from index: 15
GPGPU-Sim uArch:    0   1   2   3   4
GPGPU-Sim uArch:    5   6   7   8   9
GPGPU-Sim uArch:   10  11  12  13  14
GPGPU-Sim uArch:   15  16  17  18  19
GPGPU-Sim uArch:   20  21  22  23  24
GPGPU-Sim uArch:   25  26
GPGPU-Sim uArch: interconnect node reverse map (icntID to shaderID+MemID)
GPGPU-Sim uArch: Memory nodes start from ID: 15
GPGPU-Sim uArch:    0   1   2   3   4
GPGPU-Sim uArch:    5   6   7   8   9
GPGPU-Sim uArch:   10  11  12  13  14
GPGPU-Sim uArch:   15  16  17  18  19
GPGPU-Sim uArch:   20  21  22  23  24
GPGPU-Sim uArch:   25  26
db8fd71b22e5f9e87a0df9a155b78fdf  /home/scratch/adwait/applications/benchmarks/CUDA/KMN/gpgpu_ptx_sim__KMN
GPGPU-Sim uArch: performance model initialization complete.
GPGPU-Sim PTX: __cudaRegisterFatBinary, fat_cubin_handle = 1, filename=kmeans_cuda.cu
self exe links to: /home/scratch/adwait/applications/benchmarks/CUDA/KMN/gpgpu_ptx_sim__KMN
Running md5sum using "md5sum /home/scratch/adwait/applications/benchmarks/CUDA/KMN/gpgpu_ptx_sim__KMN "
Running cuobjdump using "$CUDA_INSTALL_PATH/bin/cuobjdump -ptx -elf -sass /home/scratch/adwait/applications/benchmarks/CUDA/KMN/gpgpu_ptx_sim__KMN > _cuobjdump_complete_output_LYgSQG"
Parsing file _cuobjdump_complete_output_LYgSQG
######### cuobjdump parser ########
## Adding new section ELF
Adding arch: sm_20
Adding identifier: kmeans_cuda.cu
## Adding new section PTX
Adding ptx filename: _cuobjdump_1.ptx
Adding arch: sm_20
Adding identifier: kmeans_cuda.cu
Done parsing!!!
GPGPU-Sim PTX: __cudaRegisterFunction _Z11kmeansPointPfiiiPiS_S_S0_ : hostFun 0x0x402c28, fat_cubin_handle = 1
GPGPU-Sim PTX: instruction assembly for function '_Z14invert_mappingPfS_ii'...   done.
GPGPU-Sim PTX: finding reconvergence points for '_Z14invert_mappingPfS_ii'...
GPGPU-Sim PTX: Finding dominators for '_Z14invert_mappingPfS_ii'...
GPGPU-Sim PTX: Finding immediate dominators for '_Z14invert_mappingPfS_ii'...
GPGPU-Sim PTX: Finding postdominators for '_Z14invert_mappingPfS_ii'...
GPGPU-Sim PTX: Finding immediate postdominators for '_Z14invert_mappingPfS_ii'...
GPGPU-Sim PTX: pre-decoding instructions for '_Z14invert_mappingPfS_ii'...
GPGPU-Sim PTX: reconvergence points for _Z14invert_mappingPfS_ii...
GPGPU-Sim PTX:  1 (potential) branch divergence @  PC=0x038 (_1.ptx:70) @%p1 bra $Lt_0_2050;
GPGPU-Sim PTX:    immediate post dominator      @  PC=0x110 (_1.ptx:103) exit;
GPGPU-Sim PTX:  2 (potential) branch divergence @  PC=0x058 (_1.ptx:74) @%p2 bra $Lt_0_2562;
GPGPU-Sim PTX:    immediate post dominator      @  PC=0x110 (_1.ptx:103) exit;
GPGPU-Sim PTX:  3 (potential) branch divergence @  PC=0x108 (_1.ptx:99) @%p3 bra $Lt_0_3074;
GPGPU-Sim PTX:    immediate post dominator      @  PC=0x110 (_1.ptx:103) exit;
GPGPU-Sim PTX: ... end of reconvergence points for _Z14invert_mappingPfS_ii
GPGPU-Sim PTX: ... done pre-decoding instructions for '_Z14invert_mappingPfS_ii'.
GPGPU-Sim PTX: instruction assembly for function '_Z11kmeansPointPfiiiPiS_S_S0_'...   done.
GPGPU-Sim PTX: finding reconvergence points for '_Z11kmeansPointPfiiiPiS_S_S0_'...
GPGPU-Sim PTX: Finding dominators for '_Z11kmeansPointPfiiiPiS_S_S0_'...
GPGPU-Sim PTX: Finding immediate dominators for '_Z11kmeansPointPfiiiPiS_S_S0_'...
GPGPU-Sim PTX: Finding postdominators for '_Z11kmeansPointPfiiiPiS_S_S0_'...
GPGPU-Sim PTX: Finding immediate postdominators for '_Z11kmeansPointPfiiiPiS_S_S0_'...
GPGPU-Sim PTX: pre-decoding instructions for '_Z11kmeansPointPfiiiPiS_S_S0_'...
GPGPU-Sim PTX: reconvergence points for _Z11kmeansPointPfiiiPiS_S_S0_...
GPGPU-Sim PTX:  1 (potential) branch divergence @  PC=0x180 (_1.ptx:136) @!%p1 bra $Lt_1_4866;
GPGPU-Sim PTX:    immediate post dominator      @  PC=0x320 (_1.ptx:202) @!%p1 bra $Lt_1_7682;
GPGPU-Sim PTX:  2 (potential) branch divergence @  PC=0x1a0 (_1.ptx:140) @%p2 bra $Lt_1_8194;
GPGPU-Sim PTX:    immediate post dominator      @  PC=0x320 (_1.ptx:202) @!%p1 bra $Lt_1_7682;
GPGPU-Sim PTX:  3 (potential) branch divergence @  PC=0x1e8 (_1.ptx:151) @!%p3 bra $Lt_1_8450;
GPGPU-Sim PTX:    immediate post dominator      @  PC=0x2c8 (_1.ptx:185) setp.lt.f32 %p5, %f2, %f1;
GPGPU-Sim PTX:  4 (potential) branch divergence @  PC=0x2b0 (_1.ptx:180) @%p4 bra $Lt_1_6402;
GPGPU-Sim PTX:    immediate post dominator      @  PC=0x2b8 (_1.ptx:181) bra.uni $Lt_1_5890;
GPGPU-Sim PTX:  5 (potential) branch divergence @  PC=0x2b8 (_1.ptx:181) bra.uni $Lt_1_5890;
GPGPU-Sim PTX:    immediate post dominator      @  PC=0x2c8 (_1.ptx:185) setp.lt.f32 %p5, %f2, %f1;
GPGPU-Sim PTX:  6 (potential) branch divergence @  PC=0x2d0 (_1.ptx:186) @!%p5 bra $Lt_1_6914;
GPGPU-Sim PTX:    immediate post dominator      @  PC=0x2e8 (_1.ptx:192) add.s32 %r18, %r18, 1;
GPGPU-Sim PTX:  7 (potential) branch divergence @  PC=0x2f8 (_1.ptx:194) @%p6 bra $Lt_1_5634;
GPGPU-Sim PTX:    immediate post dominator      @  PC=0x300 (_1.ptx:195) bra.uni $Lt_1_4610;
GPGPU-Sim PTX:  8 (potential) branch divergence @  PC=0x300 (_1.ptx:195) bra.uni $Lt_1_4610;
GPGPU-Sim PTX:    immediate post dominator      @  PC=0x320 (_1.ptx:202) @!%p1 bra $Lt_1_7682;
GPGPU-Sim PTX:  9 (potential) branch divergence @  PC=0x310 (_1.ptx:198) bra.uni $Lt_1_4610;
GPGPU-Sim PTX:    immediate post dominator      @  PC=0x320 (_1.ptx:202) @!%p1 bra $Lt_1_7682;
GPGPU-Sim PTX: 10 (potential) branch divergence @  PC=0x320 (_1.ptx:202) @!%p1 bra $Lt_1_7682;
GPGPU-Sim PTX:    immediate post dominator      @  PC=0x350 (_1.ptx:211) exit;
GPGPU-Sim PTX: ... end of reconvergence points for _Z11kmeansPointPfiiiPiS_S_S0_
GPGPU-Sim PTX: ... done pre-decoding instructions for '_Z11kmeansPointPfiiiPiS_S_S0_'.
GPGPU-Sim PTX: allocating global region for "t_features" from 0x100 to 0x104 (global memory space)
GPGPU-Sim PTX: allocating global region for "t_features_flipped" from 0x104 to 0x108 (global memory space)
GPGPU-Sim PTX: allocating global region for "t_clusters" from 0x108 to 0x10c (global memory space)
GPGPU-Sim PTX: finished parsing EMBEDDED .ptx file _1.ptx
Adding _cuobjdump_1.ptx with cubin handle 1
GPGPU-Sim PTX: extracting embedded .ptx to temporary file "_ptx_j1BORt"
Running: cat _ptx_j1BORt | sed 's/.version 1.5/.version 1.4/' | sed 's/, texmode_independent//' | sed 's/\(\.extern \.const\[1\] .b8 \w\+\)\[\]/\1\[1\]/' | sed 's/const\[.\]/const\[0\]/g' > _ptx2_3XGtTg
GPGPU-Sim PTX: generating ptxinfo using "$CUDA_INSTALL_PATH/bin/ptxas --gpu-name=sm_20 -v _ptx2_3XGtTg --output-file  /dev/null 2> _ptx_j1BORtinfo"
GPGPU-Sim PTX: Kernel '_Z11kmeansPointPfiiiPiS_S_S0_' : regs=15, lmem=0, smem=0, cmem=88
GPGPU-Sim PTX: Kernel '_Z14invert_mappingPfS_ii' : regs=10, lmem=0, smem=0, cmem=56
GPGPU-Sim PTX: removing ptxinfo using "rm -f _ptx_j1BORt _ptx2_3XGtTg _ptx_j1BORtinfo"
GPGPU-Sim PTX: loading globals with explicit initializers... 
GPGPU-Sim PTX: finished loading globals (0 bytes total).
GPGPU-Sim PTX: loading constants with explicit initializers...  done.
GPGPU-Sim PTX: __cudaRegisterFunction _Z14invert_mappingPfS_ii : hostFun 0x0x402a98, fat_cubin_handle = 1
GPGPU-Sim PTX: in __cudaRegisterTexture:
GPGPU-Sim PTX:   int dim = 1
GPGPU-Sim PTX:   int norm = 0
GPGPU-Sim PTX:   int ext = 0
GPGPU-Sim PTX:   Execution warning: Not finished implementing "void __cudaRegisterTexture(void**, const textureReference*, const void**, const char*, int, int, int)"
GPGPU-Sim PTX: in __cudaRegisterTexture:
GPGPU-Sim PTX:   int dim = 1
GPGPU-Sim PTX:   int norm = 0
GPGPU-Sim PTX:   int ext = 0
GPGPU-Sim PTX:   Execution warning: Not finished implementing "void __cudaRegisterTexture(void**, const textureReference*, const void**, const char*, int, int, int)"
GPGPU-Sim PTX: in __cudaRegisterTexture:
GPGPU-Sim PTX:   int dim = 1
GPGPU-Sim PTX:   int norm = 0
GPGPU-Sim PTX:   int ext = 0
GPGPU-Sim PTX:   Execution warning: Not finished implementing "void __cudaRegisterTexture(void**, const textureReference*, const void**, const char*, int, int, int)"

I/O completed

Number of objects: 28672
Number of features: 138

GPGPU-Sim PTX: cudaLaunch for 0x0x402c28 (mode=performance simulation) on stream 0
GPGPU-Sim PTX: pushing kernel '_Z11kmeansPointPfiiiPiS_S_S0_' to stream 0, gridDim= (11,11,1) blockDim = (256,1,1) 
kernel '_Z11kmeansPointPfiiiPiS_S_S0_' transfer to GPU hardware scheduler
GPGPU-Sim uArch: Shader 1 bind to kernel 1 '_Z11kmeansPointPfiiiPiS_S_S0_'
GPGPU-Sim uArch: CTA/core = 6, limited by: threads
GPGPU-Sim uArch: core:  1, cta: 0 initialized @(1,0)
GPGPU-Sim uArch: Shader 2 bind to kernel 1 '_Z11kmeansPointPfiiiPiS_S_S0_'
GPGPU-Sim uArch: core:  2, cta: 0 initialized @(1,0)
GPGPU-Sim uArch: Shader 3 bind to kernel 1 '_Z11kmeansPointPfiiiPiS_S_S0_'
GPGPU-Sim uArch: core:  3, cta: 0 initialized @(1,0)
GPGPU-Sim uArch: Shader 4 bind to kernel 1 '_Z11kmeansPointPfiiiPiS_S_S0_'
GPGPU-Sim uArch: core:  4, cta: 0 initialized @(1,0)
GPGPU-Sim uArch: Shader 5 bind to kernel 1 '_Z11kmeansPointPfiiiPiS_S_S0_'
GPGPU-Sim uArch: core:  5, cta: 0 initialized @(1,0)
GPGPU-Sim uArch: Shader 6 bind to kernel 1 '_Z11kmeansPointPfiiiPiS_S_S0_'
GPGPU-Sim uArch: core:  6, cta: 0 initialized @(1,0)
GPGPU-Sim uArch: Shader 7 bind to kernel 1 '_Z11kmeansPointPfiiiPiS_S_S0_'
GPGPU-Sim uArch: core:  7, cta: 0 initialized @(1,0)
GPGPU-Sim uArch: Shader 8 bind to kernel 1 '_Z11kmeansPointPfiiiPiS_S_S0_'
GPGPU-Sim uArch: core:  8, cta: 0 initialized @(1,0)
GPGPU-Sim uArch: Shader 9 bind to kernel 1 '_Z11kmeansPointPfiiiPiS_S_S0_'
GPGPU-Sim uArch: core:  9, cta: 0 initialized @(1,0)
GPGPU-Sim uArch: Shader 10 bind to kernel 1 '_Z11kmeansPointPfiiiPiS_S_S0_'
GPGPU-Sim uArch: core: 10, cta: 0 initialized @(1,0)
GPGPU-Sim uArch: Shader 11 bind to kernel 1 '_Z11kmeansPointPfiiiPiS_S_S0_'
GPGPU-Sim uArch: core: 11, cta: 0 initialized @(1,0)
GPGPU-Sim uArch: Shader 12 bind to kernel 1 '_Z11kmeansPointPfiiiPiS_S_S0_'
GPGPU-Sim uArch: core: 12, cta: 0 initialized @(1,0)
GPGPU-Sim uArch: Shader 13 bind to kernel 1 '_Z11kmeansPointPfiiiPiS_S_S0_'
GPGPU-Sim uArch: core: 13, cta: 0 initialized @(1,0)
GPGPU-Sim uArch: Shader 14 bind to kernel 1 '_Z11kmeansPointPfiiiPiS_S_S0_'
GPGPU-Sim uArch: core: 14, cta: 0 initialized @(1,0)
GPGPU-Sim uArch: Shader 0 bind to kernel 1 '_Z11kmeansPointPfiiiPiS_S_S0_'
GPGPU-Sim uArch: core:  0, cta: 0 initialized @(1,0)
GPGPU-Sim uArch: core:  1, cta: 1 initialized @(2,0)
GPGPU-Sim uArch: core:  2, cta: 1 initialized @(2,0)
GPGPU-Sim uArch: core:  3, cta: 1 initialized @(2,0)
GPGPU-Sim uArch: core:  4, cta: 1 initialized @(2,0)
GPGPU-Sim uArch: core:  5, cta: 1 initialized @(2,0)
GPGPU-Sim uArch: core:  6, cta: 1 initialized @(2,0)
GPGPU-Sim uArch: core:  7, cta: 1 initialized @(2,0)
GPGPU-Sim uArch: core:  8, cta: 1 initialized @(2,0)
GPGPU-Sim uArch: core:  9, cta: 1 initialized @(2,0)
GPGPU-Sim uArch: core: 10, cta: 1 initialized @(2,0)
GPGPU-Sim uArch: core: 11, cta: 1 initialized @(2,0)
GPGPU-Sim uArch: core: 12, cta: 1 initialized @(2,0)
GPGPU-Sim uArch: core: 13, cta: 1 initialized @(2,0)
GPGPU-Sim uArch: core: 14, cta: 1 initialized @(2,0)
GPGPU-Sim uArch: core:  0, cta: 1 initialized @(2,0)
GPGPU-Sim uArch: core:  1, cta: 2 initialized @(3,0)
GPGPU-Sim uArch: core:  2, cta: 2 initialized @(3,0)
GPGPU-Sim uArch: core:  3, cta: 2 initialized @(3,0)
GPGPU-Sim uArch: core:  4, cta: 2 initialized @(3,0)
GPGPU-Sim uArch: core:  5, cta: 2 initialized @(3,0)
GPGPU-Sim uArch: core:  6, cta: 2 initialized @(3,0)
GPGPU-Sim uArch: core:  7, cta: 2 initialized @(3,0)
GPGPU-Sim uArch: core:  8, cta: 2 initialized @(3,0)
GPGPU-Sim uArch: core:  9, cta: 2 initialized @(3,0)
GPGPU-Sim uArch: core: 10, cta: 2 initialized @(3,0)
GPGPU-Sim uArch: core: 11, cta: 2 initialized @(3,0)
GPGPU-Sim uArch: core: 12, cta: 2 initialized @(3,0)
GPGPU-Sim uArch: core: 13, cta: 2 initialized @(3,0)
GPGPU-Sim uArch: core: 14, cta: 2 initialized @(3,0)
GPGPU-Sim uArch: core:  0, cta: 2 initialized @(3,0)
GPGPU-Sim uArch: core:  1, cta: 3 initialized @(4,0)
GPGPU-Sim uArch: core:  2, cta: 3 initialized @(4,0)
GPGPU-Sim uArch: core:  3, cta: 3 initialized @(4,0)
GPGPU-Sim uArch: core:  4, cta: 3 initialized @(4,0)
GPGPU-Sim uArch: core:  5, cta: 3 initialized @(4,0)
GPGPU-Sim uArch: core:  6, cta: 3 initialized @(4,0)
GPGPU-Sim uArch: core:  7, cta: 3 initialized @(4,0)
GPGPU-Sim uArch: core:  8, cta: 3 initialized @(4,0)
GPGPU-Sim uArch: core:  9, cta: 3 initialized @(4,0)
GPGPU-Sim uArch: core: 10, cta: 3 initialized @(4,0)
GPGPU-Sim uArch: core: 11, cta: 3 initialized @(4,0)
GPGPU-Sim uArch: core: 12, cta: 3 initialized @(4,0)
GPGPU-Sim uArch: core: 13, cta: 3 initialized @(4,0)
GPGPU-Sim uArch: core: 14, cta: 3 initialized @(4,0)
GPGPU-Sim uArch: core:  0, cta: 3 initialized @(4,0)
GPGPU-Sim uArch: core:  1, cta: 4 initialized @(5,0)
GPGPU-Sim uArch: core:  2, cta: 4 initialized @(5,0)
GPGPU-Sim uArch: core:  3, cta: 4 initialized @(5,0)
GPGPU-Sim uArch: core:  4, cta: 4 initialized @(5,0)
GPGPU-Sim uArch: core:  5, cta: 4 initialized @(5,0)
GPGPU-Sim uArch: core:  6, cta: 4 initialized @(5,0)
GPGPU-Sim uArch: core:  7, cta: 4 initialized @(5,0)
GPGPU-Sim uArch: core:  8, cta: 4 initialized @(5,0)
GPGPU-Sim uArch: core:  9, cta: 4 initialized @(5,0)
GPGPU-Sim uArch: core: 10, cta: 4 initialized @(5,0)
GPGPU-Sim uArch: core: 11, cta: 4 initialized @(5,0)
GPGPU-Sim uArch: core: 12, cta: 4 initialized @(5,0)
GPGPU-Sim uArch: core: 13, cta: 4 initialized @(5,0)
GPGPU-Sim uArch: core: 14, cta: 4 initialized @(5,0)
GPGPU-Sim uArch: core:  0, cta: 4 initialized @(5,0)
GPGPU-Sim uArch: core:  1, cta: 5 initialized @(6,0)
GPGPU-Sim uArch: core:  2, cta: 5 initialized @(6,0)
GPGPU-Sim uArch: core:  3, cta: 5 initialized @(6,0)
GPGPU-Sim uArch: core:  4, cta: 5 initialized @(6,0)
GPGPU-Sim uArch: core:  5, cta: 5 initialized @(6,0)
GPGPU-Sim uArch: core:  6, cta: 5 initialized @(6,0)
GPGPU-Sim uArch: core:  7, cta: 5 initialized @(6,0)
GPGPU-Sim uArch: core:  8, cta: 5 initialized @(6,0)
GPGPU-Sim uArch: core:  9, cta: 5 initialized @(6,0)
GPGPU-Sim uArch: core: 10, cta: 5 initialized @(6,0)
GPGPU-Sim uArch: core: 11, cta: 5 initialized @(6,0)
GPGPU-Sim uArch: core: 12, cta: 5 initialized @(6,0)
GPGPU-Sim uArch: core: 13, cta: 5 initialized @(6,0)
GPGPU-Sim uArch: core: 14, cta: 5 initialized @(6,0)
GPGPU-Sim uArch: core:  0, cta: 5 initialized @(6,0)
GPGPU-Sim PTX: 100000 instructions simulated : ctaid=(7,7,0) tid=(159,0,0)
GPGPU-Sim uArch: cycles simulated: 500  inst.: 147456 (ipc=294.9) sim_rate=73728 (inst/sec) elapsed = 0:0:00:02 / Tue Apr 16 16:56:32 2019
GPGPU-Sim PTX: 200000 instructions simulated : ctaid=(2,2,0) tid=(223,0,0)
GPGPU-Sim PTX: 300000 instructions simulated : ctaid=(3,5,0) tid=(255,0,0)
GPGPU-Sim PTX: 400000 instructions simulated : ctaid=(9,7,0) tid=(191,0,0)
GPGPU-Sim PTX: 500000 instructions simulated : ctaid=(9,4,0) tid=(191,0,0)
GPGPU-Sim PTX: 600000 instructions simulated : ctaid=(3,5,0) tid=(223,0,0)
GPGPU-Sim uArch: cycles simulated: 1500  inst.: 615616 (ipc=410.4) sim_rate=205205 (inst/sec) elapsed = 0:0:00:03 / Tue Apr 16 16:56:33 2019
GPGPU-Sim PTX: 700000 instructions simulated : ctaid=(1,4,0) tid=(159,0,0)
GPGPU-Sim PTX: 800000 instructions simulated : ctaid=(4,5,0) tid=(31,0,0)
GPGPU-Sim PTX: 900000 instructions simulated : ctaid=(2,1,0) tid=(191,0,0)
GPGPU-Sim uArch: cycles simulated: 2500  inst.: 851488 (ipc=340.6) sim_rate=212872 (inst/sec) elapsed = 0:0:00:04 / Tue Apr 16 16:56:34 2019
GPGPU-Sim uArch: cycles simulated: 3500  inst.: 857024 (ipc=244.9) sim_rate=171404 (inst/sec) elapsed = 0:0:00:05 / Tue Apr 16 16:56:35 2019
GPGPU-Sim uArch: cycles simulated: 5000  inst.: 878016 (ipc=175.6) sim_rate=146336 (inst/sec) elapsed = 0:0:00:06 / Tue Apr 16 16:56:36 2019
GPGPU-Sim uArch: cycles simulated: 6500  inst.: 907616 (ipc=139.6) sim_rate=129659 (inst/sec) elapsed = 0:0:00:07 / Tue Apr 16 16:56:37 2019
GPGPU-Sim PTX: 1000000 instructions simulated : ctaid=(9,0,0) tid=(223,0,0)
GPGPU-Sim uArch: cycles simulated: 8000  inst.: 936352 (ipc=117.0) sim_rate=117044 (inst/sec) elapsed = 0:0:00:08 / Tue Apr 16 16:56:38 2019
GPGPU-Sim uArch: cycles simulated: 9000  inst.: 963872 (ipc=107.1) sim_rate=107096 (inst/sec) elapsed = 0:0:00:09 / Tue Apr 16 16:56:39 2019
GPGPU-Sim uArch: cycles simulated: 10500  inst.: 995616 (ipc=94.8) sim_rate=99561 (inst/sec) elapsed = 0:0:00:10 / Tue Apr 16 16:56:40 2019
GPGPU-Sim uArch: cycles simulated: 11500  inst.: 1023040 (ipc=89.0) sim_rate=93003 (inst/sec) elapsed = 0:0:00:11 / Tue Apr 16 16:56:41 2019
GPGPU-Sim PTX: 1100000 instructions simulated : ctaid=(9,0,0) tid=(95,0,0)
GPGPU-Sim uArch: cycles simulated: 13000  inst.: 1068224 (ipc=82.2) sim_rate=89018 (inst/sec) elapsed = 0:0:00:12 / Tue Apr 16 16:56:42 2019
GPGPU-Sim uArch: cycles simulated: 14500  inst.: 1114784 (ipc=76.9) sim_rate=85752 (inst/sec) elapsed = 0:0:00:13 / Tue Apr 16 16:56:43 2019
GPGPU-Sim PTX: 1200000 instructions simulated : ctaid=(4,0,0) tid=(127,0,0)
GPGPU-Sim uArch: cycles simulated: 15500  inst.: 1141216 (ipc=73.6) sim_rate=81515 (inst/sec) elapsed = 0:0:00:14 / Tue Apr 16 16:56:44 2019
GPGPU-Sim uArch: cycles simulated: 17000  inst.: 1184736 (ipc=69.7) sim_rate=78982 (inst/sec) elapsed = 0:0:00:15 / Tue Apr 16 16:56:45 2019
GPGPU-Sim uArch: cycles simulated: 18000  inst.: 1209536 (ipc=67.2) sim_rate=75596 (inst/sec) elapsed = 0:0:00:16 / Tue Apr 16 16:56:46 2019
GPGPU-Sim PTX: 1300000 instructions simulated : ctaid=(7,2,0) tid=(95,0,0)
GPGPU-Sim uArch: cycles simulated: 19500  inst.: 1252512 (ipc=64.2) sim_rate=73677 (inst/sec) elapsed = 0:0:00:17 / Tue Apr 16 16:56:47 2019
GPGPU-Sim uArch: cycles simulated: 21000  inst.: 1295520 (ipc=61.7) sim_rate=71973 (inst/sec) elapsed = 0:0:00:18 / Tue Apr 16 16:56:48 2019
GPGPU-Sim uArch: cycles simulated: 22000  inst.: 1324000 (ipc=60.2) sim_rate=69684 (inst/sec) elapsed = 0:0:00:19 / Tue Apr 16 16:56:49 2019
GPGPU-Sim PTX: 1400000 instructions simulated : ctaid=(9,0,0) tid=(31,0,0)
GPGPU-Sim uArch: cycles simulated: 23500  inst.: 1364256 (ipc=58.1) sim_rate=68212 (inst/sec) elapsed = 0:0:00:20 / Tue Apr 16 16:56:50 2019
GPGPU-Sim uArch: cycles simulated: 24500  inst.: 1389504 (ipc=56.7) sim_rate=66166 (inst/sec) elapsed = 0:0:00:21 / Tue Apr 16 16:56:51 2019
GPGPU-Sim PTX: 1500000 instructions simulated : ctaid=(9,0,0) tid=(159,0,0)
GPGPU-Sim uArch: cycles simulated: 26000  inst.: 1435424 (ipc=55.2) sim_rate=65246 (inst/sec) elapsed = 0:0:00:22 / Tue Apr 16 16:56:52 2019
GPGPU-Sim uArch: cycles simulated: 27000  inst.: 1469504 (ipc=54.4) sim_rate=63891 (inst/sec) elapsed = 0:0:00:23 / Tue Apr 16 16:56:53 2019
GPGPU-Sim uArch: cycles simulated: 28500  inst.: 1512160 (ipc=53.1) sim_rate=63006 (inst/sec) elapsed = 0:0:00:24 / Tue Apr 16 16:56:54 2019
GPGPU-Sim PTX: 1600000 instructions simulated : ctaid=(6,0,0) tid=(159,0,0)
GPGPU-Sim uArch: cycles simulated: 30000  inst.: 1560288 (ipc=52.0) sim_rate=62411 (inst/sec) elapsed = 0:0:00:25 / Tue Apr 16 16:56:55 2019
GPGPU-Sim uArch: cycles simulated: 31000  inst.: 1587808 (ipc=51.2) sim_rate=61069 (inst/sec) elapsed = 0:0:00:26 / Tue Apr 16 16:56:56 2019
GPGPU-Sim PTX: 1700000 instructions simulated : ctaid=(3,2,0) tid=(31,0,0)
GPGPU-Sim uArch: cycles simulated: 32500  inst.: 1633888 (ipc=50.3) sim_rate=60514 (inst/sec) elapsed = 0:0:00:27 / Tue Apr 16 16:56:57 2019
GPGPU-Sim uArch: cycles simulated: 33500  inst.: 1665824 (ipc=49.7) sim_rate=59493 (inst/sec) elapsed = 0:0:00:28 / Tue Apr 16 16:56:58 2019
GPGPU-Sim uArch: cycles simulated: 35000  inst.: 1711040 (ipc=48.9) sim_rate=59001 (inst/sec) elapsed = 0:0:00:29 / Tue Apr 16 16:56:59 2019
GPGPU-Sim PTX: 1800000 instructions simulated : ctaid=(1,0,0) tid=(159,0,0)
GPGPU-Sim uArch: cycles simulated: 36500  inst.: 1756832 (ipc=48.1) sim_rate=58561 (inst/sec) elapsed = 0:0:00:30 / Tue Apr 16 16:57:00 2019
GPGPU-Sim uArch: cycles simulated: 37500  inst.: 1787776 (ipc=47.7) sim_rate=57670 (inst/sec) elapsed = 0:0:00:31 / Tue Apr 16 16:57:01 2019
GPGPU-Sim PTX: 1900000 instructions simulated : ctaid=(2,0,0) tid=(95,0,0)
GPGPU-Sim uArch: cycles simulated: 39000  inst.: 1831936 (ipc=47.0) sim_rate=57248 (inst/sec) elapsed = 0:0:00:32 / Tue Apr 16 16:57:02 2019
GPGPU-Sim uArch: cycles simulated: 40000  inst.: 1860416 (ipc=46.5) sim_rate=56376 (inst/sec) elapsed = 0:0:00:33 / Tue Apr 16 16:57:03 2019
GPGPU-Sim uArch: cycles simulated: 41500  inst.: 1905792 (ipc=45.9) sim_rate=56052 (inst/sec) elapsed = 0:0:00:34 / Tue Apr 16 16:57:04 2019
GPGPU-Sim PTX: 2000000 instructions simulated : ctaid=(2,0,0) tid=(223,0,0)
GPGPU-Sim uArch: cycles simulated: 42500  inst.: 1934464 (ipc=45.5) sim_rate=55270 (inst/sec) elapsed = 0:0:00:35 / Tue Apr 16 16:57:05 2019
GPGPU-Sim uArch: cycles simulated: 44000  inst.: 1977376 (ipc=44.9) sim_rate=54927 (inst/sec) elapsed = 0:0:00:36 / Tue Apr 16 16:57:06 2019
GPGPU-Sim uArch: cycles simulated: 45500  inst.: 2024352 (ipc=44.5) sim_rate=54712 (inst/sec) elapsed = 0:0:00:37 / Tue Apr 16 16:57:07 2019
GPGPU-Sim PTX: 2100000 instructions simulated : ctaid=(0,0,0) tid=(31,0,0)
GPGPU-Sim uArch: cycles simulated: 46500  inst.: 2060064 (ipc=44.3) sim_rate=54212 (inst/sec) elapsed = 0:0:00:38 / Tue Apr 16 16:57:08 2019
GPGPU-Sim uArch: cycles simulated: 48000  inst.: 2108928 (ipc=43.9) sim_rate=54075 (inst/sec) elapsed = 0:0:00:39 / Tue Apr 16 16:57:09 2019
GPGPU-Sim PTX: 2200000 instructions simulated : ctaid=(2,2,0) tid=(223,0,0)
GPGPU-Sim uArch: cycles simulated: 49000  inst.: 2137184 (ipc=43.6) sim_rate=53429 (inst/sec) elapsed = 0:0:00:40 / Tue Apr 16 16:57:10 2019
GPGPU-Sim uArch: cycles simulated: 50500  inst.: 2183872 (ipc=43.2) sim_rate=53265 (inst/sec) elapsed = 0:0:00:41 / Tue Apr 16 16:57:11 2019
GPGPU-Sim uArch: cycles simulated: 51500  inst.: 2213056 (ipc=43.0) sim_rate=52691 (inst/sec) elapsed = 0:0:00:42 / Tue Apr 16 16:57:12 2019
GPGPU-Sim PTX: 2300000 instructions simulated : ctaid=(3,1,0) tid=(63,0,0)
GPGPU-Sim uArch: cycles simulated: 53000  inst.: 2260832 (ipc=42.7) sim_rate=52577 (inst/sec) elapsed = 0:0:00:43 / Tue Apr 16 16:57:13 2019
GPGPU-Sim uArch: cycles simulated: 54000  inst.: 2295424 (ipc=42.5) sim_rate=52168 (inst/sec) elapsed = 0:0:00:44 / Tue Apr 16 16:57:14 2019
GPGPU-Sim PTX: 2400000 instructions simulated : ctaid=(6,2,0) tid=(31,0,0)
GPGPU-Sim uArch: cycles simulated: 55500  inst.: 2336320 (ipc=42.1) sim_rate=51918 (inst/sec) elapsed = 0:0:00:45 / Tue Apr 16 16:57:15 2019
GPGPU-Sim uArch: cycles simulated: 57000  inst.: 2376096 (ipc=41.7) sim_rate=51654 (inst/sec) elapsed = 0:0:00:46 / Tue Apr 16 16:57:16 2019
GPGPU-Sim uArch: cycles simulated: 58000  inst.: 2410624 (ipc=41.6) sim_rate=51289 (inst/sec) elapsed = 0:0:00:47 / Tue Apr 16 16:57:17 2019
GPGPU-Sim PTX: 2500000 instructions simulated : ctaid=(8,1,0) tid=(95,0,0)
GPGPU-Sim uArch: cycles simulated: 59500  inst.: 2449664 (ipc=41.2) sim_rate=51034 (inst/sec) elapsed = 0:0:00:48 / Tue Apr 16 16:57:18 2019
GPGPU-Sim uArch: cycles simulated: 60500  inst.: 2487072 (ipc=41.1) sim_rate=50756 (inst/sec) elapsed = 0:0:00:49 / Tue Apr 16 16:57:19 2019
GPGPU-Sim PTX: 2600000 instructions simulated : ctaid=(6,1,0) tid=(95,0,0)
GPGPU-Sim uArch: cycles simulated: 62000  inst.: 2532096 (ipc=40.8) sim_rate=50641 (inst/sec) elapsed = 0:0:00:50 / Tue Apr 16 16:57:20 2019
GPGPU-Sim uArch: cycles simulated: 63500  inst.: 2579872 (ipc=40.6) sim_rate=50585 (inst/sec) elapsed = 0:0:00:51 / Tue Apr 16 16:57:21 2019
GPGPU-Sim uArch: cycles simulated: 64500  inst.: 2605504 (ipc=40.4) sim_rate=50105 (inst/sec) elapsed = 0:0:00:52 / Tue Apr 16 16:57:22 2019
GPGPU-Sim PTX: 2700000 instructions simulated : ctaid=(6,0,0) tid=(63,0,0)
GPGPU-Sim uArch: cycles simulated: 66000  inst.: 2646240 (ipc=40.1) sim_rate=49929 (inst/sec) elapsed = 0:0:00:53 / Tue Apr 16 16:57:23 2019
GPGPU-Sim uArch: cycles simulated: 67000  inst.: 2682016 (ipc=40.0) sim_rate=49666 (inst/sec) elapsed = 0:0:00:54 / Tue Apr 16 16:57:24 2019
GPGPU-Sim uArch: cycles simulated: 68500  inst.: 2720160 (ipc=39.7) sim_rate=49457 (inst/sec) elapsed = 0:0:00:55 / Tue Apr 16 16:57:25 2019
GPGPU-Sim PTX: 2800000 instructions simulated : ctaid=(6,2,0) tid=(159,0,0)
GPGPU-Sim uArch: cycles simulated: 69500  inst.: 2751264 (ipc=39.6) sim_rate=49129 (inst/sec) elapsed = 0:0:00:56 / Tue Apr 16 16:57:26 2019
GPGPU-Sim uArch: cycles simulated: 71000  inst.: 2797600 (ipc=39.4) sim_rate=49080 (inst/sec) elapsed = 0:0:00:57 / Tue Apr 16 16:57:27 2019
GPGPU-Sim PTX: 2900000 instructions simulated : ctaid=(5,1,0) tid=(31,0,0)
GPGPU-Sim uArch: cycles simulated: 72500  inst.: 2841984 (ipc=39.2) sim_rate=48999 (inst/sec) elapsed = 0:0:00:58 / Tue Apr 16 16:57:28 2019
GPGPU-Sim uArch: cycles simulated: 73500  inst.: 2872000 (ipc=39.1) sim_rate=48677 (inst/sec) elapsed = 0:0:00:59 / Tue Apr 16 16:57:29 2019
GPGPU-Sim uArch: cycles simulated: 75000  inst.: 2910016 (ipc=38.8) sim_rate=48500 (inst/sec) elapsed = 0:0:01:00 / Tue Apr 16 16:57:30 2019
GPGPU-Sim PTX: 3000000 instructions simulated : ctaid=(5,1,0) tid=(95,0,0)
GPGPU-Sim uArch: cycles simulated: 76000  inst.: 2939360 (ipc=38.7) sim_rate=48186 (inst/sec) elapsed = 0:0:01:01 / Tue Apr 16 16:57:31 2019
GPGPU-Sim uArch: cycles simulated: 77500  inst.: 2981664 (ipc=38.5) sim_rate=48091 (inst/sec) elapsed = 0:0:01:02 / Tue Apr 16 16:57:32 2019
GPGPU-Sim uArch: cycles simulated: 79000  inst.: 3017600 (ipc=38.2) sim_rate=47898 (inst/sec) elapsed = 0:0:01:03 / Tue Apr 16 16:57:33 2019
GPGPU-Sim PTX: 3100000 instructions simulated : ctaid=(1,1,0) tid=(159,0,0)
GPGPU-Sim uArch: cycles simulated: 80000  inst.: 3047136 (ipc=38.1) sim_rate=47611 (inst/sec) elapsed = 0:0:01:04 / Tue Apr 16 16:57:34 2019
GPGPU-Sim uArch: cycles simulated: 81500  inst.: 3092960 (ipc=38.0) sim_rate=47584 (inst/sec) elapsed = 0:0:01:05 / Tue Apr 16 16:57:35 2019
GPGPU-Sim uArch: cycles simulated: 82500  inst.: 3120800 (ipc=37.8) sim_rate=47284 (inst/sec) elapsed = 0:0:01:06 / Tue Apr 16 16:57:36 2019
GPGPU-Sim PTX: 3200000 instructions simulated : ctaid=(10,0,0) tid=(31,0,0)
GPGPU-Sim uArch: cycles simulated: 84000  inst.: 3164096 (ipc=37.7) sim_rate=47225 (inst/sec) elapsed = 0:0:01:07 / Tue Apr 16 16:57:37 2019
GPGPU-Sim uArch: cycles simulated: 85000  inst.: 3190272 (ipc=37.5) sim_rate=46915 (inst/sec) elapsed = 0:0:01:08 / Tue Apr 16 16:57:38 2019
GPGPU-Sim PTX: 3300000 instructions simulated : ctaid=(4,2,0) tid=(31,0,0)
GPGPU-Sim uArch: cycles simulated: 86500  inst.: 3240704 (ipc=37.5) sim_rate=46966 (inst/sec) elapsed = 0:0:01:09 / Tue Apr 16 16:57:39 2019
GPGPU-Sim uArch: cycles simulated: 88000  inst.: 3285280 (ipc=37.3) sim_rate=46932 (inst/sec) elapsed = 0:0:01:10 / Tue Apr 16 16:57:40 2019
GPGPU-Sim uArch: cycles simulated: 89000  inst.: 3308288 (ipc=37.2) sim_rate=46595 (inst/sec) elapsed = 0:0:01:11 / Tue Apr 16 16:57:41 2019
GPGPU-Sim PTX: 3400000 instructions simulated : ctaid=(3,0,0) tid=(223,0,0)
GPGPU-Sim uArch: cycles simulated: 90500  inst.: 3355712 (ipc=37.1) sim_rate=46607 (inst/sec) elapsed = 0:0:01:12 / Tue Apr 16 16:57:42 2019
GPGPU-Sim uArch: cycles simulated: 91500  inst.: 3382272 (ipc=37.0) sim_rate=46332 (inst/sec) elapsed = 0:0:01:13 / Tue Apr 16 16:57:43 2019
GPGPU-Sim uArch: cycles simulated: 93000  inst.: 3426368 (ipc=36.8) sim_rate=46302 (inst/sec) elapsed = 0:0:01:14 / Tue Apr 16 16:57:44 2019
GPGPU-Sim PTX: 3500000 instructions simulated : ctaid=(10,0,0) tid=(223,0,0)
GPGPU-Sim uArch: cycles simulated: 94500  inst.: 3471936 (ipc=36.7) sim_rate=46292 (inst/sec) elapsed = 0:0:01:15 / Tue Apr 16 16:57:45 2019
GPGPU-Sim uArch: cycles simulated: 95500  inst.: 3497024 (ipc=36.6) sim_rate=46013 (inst/sec) elapsed = 0:0:01:16 / Tue Apr 16 16:57:46 2019
GPGPU-Sim PTX: 3600000 instructions simulated : ctaid=(3,2,0) tid=(31,0,0)
GPGPU-Sim uArch: cycles simulated: 97000  inst.: 3540864 (ipc=36.5) sim_rate=45985 (inst/sec) elapsed = 0:0:01:17 / Tue Apr 16 16:57:47 2019
GPGPU-Sim uArch: cycles simulated: 98000  inst.: 3571648 (ipc=36.4) sim_rate=45790 (inst/sec) elapsed = 0:0:01:18 / Tue Apr 16 16:57:48 2019
GPGPU-Sim uArch: cycles simulated: 99500  inst.: 3611744 (ipc=36.3) sim_rate=45718 (inst/sec) elapsed = 0:0:01:19 / Tue Apr 16 16:57:49 2019
GPGPU-Sim PTX: 3700000 instructions simulated : ctaid=(9,0,0) tid=(95,0,0)
GPGPU-Sim uArch: cycles simulated: 100500  inst.: 3636960 (ipc=36.2) sim_rate=45462 (inst/sec) elapsed = 0:0:01:20 / Tue Apr 16 16:57:50 2019
GPGPU-Sim uArch: cycles simulated: 102000  inst.: 3686080 (ipc=36.1) sim_rate=45507 (inst/sec) elapsed = 0:0:01:21 / Tue Apr 16 16:57:51 2019
GPGPU-Sim PTX: 3800000 instructions simulated : ctaid=(6,2,0) tid=(31,0,0)
GPGPU-Sim uArch: cycles simulated: 103500  inst.: 3733344 (ipc=36.1) sim_rate=45528 (inst/sec) elapsed = 0:0:01:22 / Tue Apr 16 16:57:52 2019
GPGPU-Sim uArch: cycles simulated: 104500  inst.: 3757952 (ipc=36.0) sim_rate=45276 (inst/sec) elapsed = 0:0:01:23 / Tue Apr 16 16:57:53 2019
GPGPU-Sim uArch: cycles simulated: 106000  inst.: 3798368 (ipc=35.8) sim_rate=45218 (inst/sec) elapsed = 0:0:01:24 / Tue Apr 16 16:57:54 2019
GPGPU-Sim PTX: 3900000 instructions simulated : ctaid=(5,0,0) tid=(95,0,0)
GPGPU-Sim uArch: cycles simulated: 107000  inst.: 3826656 (ipc=35.8) sim_rate=45019 (inst/sec) elapsed = 0:0:01:25 / Tue Apr 16 16:57:55 2019
GPGPU-Sim uArch: cycles simulated: 108500  inst.: 3868480 (ipc=35.7) sim_rate=44982 (inst/sec) elapsed = 0:0:01:26 / Tue Apr 16 16:57:56 2019
GPGPU-Sim uArch: cycles simulated: 110000  inst.: 3910656 (ipc=35.6) sim_rate=44950 (inst/sec) elapsed = 0:0:01:27 / Tue Apr 16 16:57:57 2019
GPGPU-Sim PTX: 4000000 instructions simulated : ctaid=(4,0,0) tid=(95,0,0)
GPGPU-Sim uArch: cycles simulated: 111000  inst.: 3941504 (ipc=35.5) sim_rate=44789 (inst/sec) elapsed = 0:0:01:28 / Tue Apr 16 16:57:58 2019
GPGPU-Sim uArch: cycles simulated: 112500  inst.: 3983296 (ipc=35.4) sim_rate=44756 (inst/sec) elapsed = 0:0:01:29 / Tue Apr 16 16:57:59 2019
GPGPU-Sim uArch: cycles simulated: 113500  inst.: 4010336 (ipc=35.3) sim_rate=44559 (inst/sec) elapsed = 0:0:01:30 / Tue Apr 16 16:58:00 2019
GPGPU-Sim PTX: 4100000 instructions simulated : ctaid=(3,0,0) tid=(127,0,0)
GPGPU-Sim uArch: cycles simulated: 115000  inst.: 4054208 (ipc=35.3) sim_rate=44551 (inst/sec) elapsed = 0:0:01:31 / Tue Apr 16 16:58:01 2019
GPGPU-Sim uArch: cycles simulated: 116500  inst.: 4098592 (ipc=35.2) sim_rate=44549 (inst/sec) elapsed = 0:0:01:32 / Tue Apr 16 16:58:02 2019
GPGPU-Sim PTX: 4200000 instructions simulated : ctaid=(8,2,0) tid=(95,0,0)
GPGPU-Sim uArch: cycles simulated: 117500  inst.: 4129568 (ipc=35.1) sim_rate=44403 (inst/sec) elapsed = 0:0:01:33 / Tue Apr 16 16:58:03 2019
GPGPU-Sim uArch: cycles simulated: 119000  inst.: 4176960 (ipc=35.1) sim_rate=44435 (inst/sec) elapsed = 0:0:01:34 / Tue Apr 16 16:58:04 2019
GPGPU-Sim uArch: cycles simulated: 120000  inst.: 4206848 (ipc=35.1) sim_rate=44282 (inst/sec) elapsed = 0:0:01:35 / Tue Apr 16 16:58:05 2019
GPGPU-Sim PTX: 4300000 instructions simulated : ctaid=(3,2,0) tid=(159,0,0)
GPGPU-Sim uArch: cycles simulated: 121500  inst.: 4243072 (ipc=34.9) sim_rate=44198 (inst/sec) elapsed = 0:0:01:36 / Tue Apr 16 16:58:06 2019
GPGPU-Sim uArch: cycles simulated: 123000  inst.: 4289312 (ipc=34.9) sim_rate=44219 (inst/sec) elapsed = 0:0:01:37 / Tue Apr 16 16:58:07 2019
GPGPU-Sim uArch: cycles simulated: 124000  inst.: 4316576 (ipc=34.8) sim_rate=44046 (inst/sec) elapsed = 0:0:01:38 / Tue Apr 16 16:58:08 2019
GPGPU-Sim PTX: 4400000 instructions simulated : ctaid=(0,2,0) tid=(159,0,0)
GPGPU-Sim uArch: cycles simulated: 125500  inst.: 4353696 (ipc=34.7) sim_rate=43976 (inst/sec) elapsed = 0:0:01:39 / Tue Apr 16 16:58:09 2019
GPGPU-Sim uArch: cycles simulated: 126500  inst.: 4387808 (ipc=34.7) sim_rate=43878 (inst/sec) elapsed = 0:0:01:40 / Tue Apr 16 16:58:10 2019
GPGPU-Sim PTX: 4500000 instructions simulated : ctaid=(2,1,0) tid=(159,0,0)
GPGPU-Sim uArch: cycles simulated: 128000  inst.: 4435424 (ipc=34.7) sim_rate=43915 (inst/sec) elapsed = 0:0:01:41 / Tue Apr 16 16:58:11 2019
GPGPU-Sim uArch: cycles simulated: 129000  inst.: 4459840 (ipc=34.6) sim_rate=43723 (inst/sec) elapsed = 0:0:01:42 / Tue Apr 16 16:58:12 2019
GPGPU-Sim uArch: cycles simulated: 130500  inst.: 4502880 (ipc=34.5) sim_rate=43717 (inst/sec) elapsed = 0:0:01:43 / Tue Apr 16 16:58:13 2019
GPGPU-Sim PTX: 4600000 instructions simulated : ctaid=(3,0,0) tid=(191,0,0)
GPGPU-Sim uArch: cycles simulated: 132000  inst.: 4543520 (ipc=34.4) sim_rate=43687 (inst/sec) elapsed = 0:0:01:44 / Tue Apr 16 16:58:14 2019
GPGPU-Sim uArch: cycles simulated: 133000  inst.: 4571232 (ipc=34.4) sim_rate=43535 (inst/sec) elapsed = 0:0:01:45 / Tue Apr 16 16:58:15 2019
GPGPU-Sim uArch: cycles simulated: 134500  inst.: 4612960 (ipc=34.3) sim_rate=43518 (inst/sec) elapsed = 0:0:01:46 / Tue Apr 16 16:58:16 2019
GPGPU-Sim PTX: 4700000 instructions simulated : ctaid=(8,0,0) tid=(223,0,0)
GPGPU-Sim uArch: cycles simulated: 135500  inst.: 4641888 (ipc=34.3) sim_rate=43382 (inst/sec) elapsed = 0:0:01:47 / Tue Apr 16 16:58:17 2019
GPGPU-Sim uArch: cycles simulated: 137000  inst.: 4682240 (ipc=34.2) sim_rate=43354 (inst/sec) elapsed = 0:0:01:48 / Tue Apr 16 16:58:18 2019
GPGPU-Sim PTX: 4800000 instructions simulated : ctaid=(5,1,0) tid=(223,0,0)
GPGPU-Sim uArch: cycles simulated: 138500  inst.: 4729856 (ipc=34.2) sim_rate=43393 (inst/sec) elapsed = 0:0:01:49 / Tue Apr 16 16:58:19 2019
GPGPU-Sim uArch: cycles simulated: 139500  inst.: 4765696 (ipc=34.2) sim_rate=43324 (inst/sec) elapsed = 0:0:01:50 / Tue Apr 16 16:58:20 2019
GPGPU-Sim uArch: cycles simulated: 141000  inst.: 4813184 (ipc=34.1) sim_rate=43362 (inst/sec) elapsed = 0:0:01:51 / Tue Apr 16 16:58:21 2019
GPGPU-Sim PTX: 4900000 instructions simulated : ctaid=(2,0,0) tid=(223,0,0)
GPGPU-Sim uArch: cycles simulated: 142000  inst.: 4839680 (ipc=34.1) sim_rate=43211 (inst/sec) elapsed = 0:0:01:52 / Tue Apr 16 16:58:22 2019
GPGPU-Sim uArch: cycles simulated: 143500  inst.: 4888096 (ipc=34.1) sim_rate=43257 (inst/sec) elapsed = 0:0:01:53 / Tue Apr 16 16:58:23 2019
GPGPU-Sim PTX: 5000000 instructions simulated : ctaid=(8,1,0) tid=(95,0,0)
GPGPU-Sim uArch: cycles simulated: 145000  inst.: 4934432 (ipc=34.0) sim_rate=43284 (inst/sec) elapsed = 0:0:01:54 / Tue Apr 16 16:58:24 2019
GPGPU-Sim uArch: cycles simulated: 146000  inst.: 4965568 (ipc=34.0) sim_rate=43178 (inst/sec) elapsed = 0:0:01:55 / Tue Apr 16 16:58:25 2019
GPGPU-Sim uArch: cycles simulated: 147500  inst.: 5014400 (ipc=34.0) sim_rate=43227 (inst/sec) elapsed = 0:0:01:56 / Tue Apr 16 16:58:26 2019
GPGPU-Sim PTX: 5100000 instructions simulated : ctaid=(9,3,0) tid=(31,0,0)
GPGPU-Sim uArch: cycles simulated: 148500  inst.: 5052352 (ipc=34.0) sim_rate=43182 (inst/sec) elapsed = 0:0:01:57 / Tue Apr 16 16:58:27 2019
GPGPU-Sim uArch: cycles simulated: 150000  inst.: 5089440 (ipc=33.9) sim_rate=43130 (inst/sec) elapsed = 0:0:01:58 / Tue Apr 16 16:58:28 2019
GPGPU-Sim uArch: cycles simulated: 151000  inst.: 5115552 (ipc=33.9) sim_rate=42987 (inst/sec) elapsed = 0:0:01:59 / Tue Apr 16 16:58:29 2019
GPGPU-Sim PTX: 5200000 instructions simulated : ctaid=(10,1,0) tid=(223,0,0)
GPGPU-Sim uArch: cycles simulated: 152500  inst.: 5168000 (ipc=33.9) sim_rate=43066 (inst/sec) elapsed = 0:0:02:00 / Tue Apr 16 16:58:30 2019
GPGPU-Sim uArch: cycles simulated: 154000  inst.: 5219840 (ipc=33.9) sim_rate=43139 (inst/sec) elapsed = 0:0:02:01 / Tue Apr 16 16:58:31 2019
GPGPU-Sim PTX: 5300000 instructions simulated : ctaid=(8,1,0) tid=(31,0,0)
GPGPU-Sim uArch: cycles simulated: 155000  inst.: 5249696 (ipc=33.9) sim_rate=43030 (inst/sec) elapsed = 0:0:02:02 / Tue Apr 16 16:58:32 2019
GPGPU-Sim uArch: cycles simulated: 156500  inst.: 5298976 (ipc=33.9) sim_rate=43081 (inst/sec) elapsed = 0:0:02:03 / Tue Apr 16 16:58:33 2019
GPGPU-Sim uArch: cycles simulated: 157500  inst.: 5326176 (ipc=33.8) sim_rate=42953 (inst/sec) elapsed = 0:0:02:04 / Tue Apr 16 16:58:34 2019
GPGPU-Sim PTX: 5400000 instructions simulated : ctaid=(3,2,0) tid=(95,0,0)
GPGPU-Sim uArch: cycles simulated: 159000  inst.: 5372864 (ipc=33.8) sim_rate=42982 (inst/sec) elapsed = 0:0:02:05 / Tue Apr 16 16:58:35 2019
GPGPU-Sim uArch: cycles simulated: 160000  inst.: 5404096 (ipc=33.8) sim_rate=42889 (inst/sec) elapsed = 0:0:02:06 / Tue Apr 16 16:58:36 2019
GPGPU-Sim PTX: 5500000 instructions simulated : ctaid=(4,1,0) tid=(95,0,0)
GPGPU-Sim uArch: cycles simulated: 161500  inst.: 5452576 (ipc=33.8) sim_rate=42933 (inst/sec) elapsed = 0:0:02:07 / Tue Apr 16 16:58:37 2019
GPGPU-Sim uArch: cycles simulated: 163000  inst.: 5492768 (ipc=33.7) sim_rate=42912 (inst/sec) elapsed = 0:0:02:08 / Tue Apr 16 16:58:38 2019
GPGPU-Sim uArch: cycles simulated: 164000  inst.: 5526272 (ipc=33.7) sim_rate=42839 (inst/sec) elapsed = 0:0:02:09 / Tue Apr 16 16:58:39 2019
GPGPU-Sim PTX: 5600000 instructions simulated : ctaid=(2,0,0) tid=(159,0,0)
GPGPU-Sim uArch: cycles simulated: 165500  inst.: 5571968 (ipc=33.7) sim_rate=42861 (inst/sec) elapsed = 0:0:02:10 / Tue Apr 16 16:58:40 2019
GPGPU-Sim uArch: cycles simulated: 166500  inst.: 5598272 (ipc=33.6) sim_rate=42734 (inst/sec) elapsed = 0:0:02:11 / Tue Apr 16 16:58:41 2019
GPGPU-Sim PTX: 5700000 instructions simulated : ctaid=(6,0,0) tid=(191,0,0)
GPGPU-Sim uArch: cycles simulated: 168000  inst.: 5648384 (ipc=33.6) sim_rate=42790 (inst/sec) elapsed = 0:0:02:12 / Tue Apr 16 16:58:42 2019
GPGPU-Sim uArch: cycles simulated: 169000  inst.: 5680864 (ipc=33.6) sim_rate=42713 (inst/sec) elapsed = 0:0:02:13 / Tue Apr 16 16:58:43 2019
GPGPU-Sim uArch: cycles simulated: 170500  inst.: 5726240 (ipc=33.6) sim_rate=42733 (inst/sec) elapsed = 0:0:02:14 / Tue Apr 16 16:58:44 2019
GPGPU-Sim PTX: 5800000 instructions simulated : ctaid=(2,3,0) tid=(31,0,0)
GPGPU-Sim uArch: cycles simulated: 172000  inst.: 5769920 (ipc=33.5) sim_rate=42740 (inst/sec) elapsed = 0:0:02:15 / Tue Apr 16 16:58:45 2019
GPGPU-Sim uArch: cycles simulated: 173000  inst.: 5809664 (ipc=33.6) sim_rate=42718 (inst/sec) elapsed = 0:0:02:16 / Tue Apr 16 16:58:46 2019
GPGPU-Sim PTX: 5900000 instructions simulated : ctaid=(3,1,0) tid=(223,0,0)
GPGPU-Sim uArch: cycles simulated: 174500  inst.: 5856640 (ipc=33.6) sim_rate=42749 (inst/sec) elapsed = 0:0:02:17 / Tue Apr 16 16:58:47 2019
GPGPU-Sim uArch: cycles simulated: 175500  inst.: 5885088 (ipc=33.5) sim_rate=42645 (inst/sec) elapsed = 0:0:02:18 / Tue Apr 16 16:58:48 2019
GPGPU-Sim uArch: cycles simulated: 177000  inst.: 5925696 (ipc=33.5) sim_rate=42630 (inst/sec) elapsed = 0:0:02:19 / Tue Apr 16 16:58:49 2019
GPGPU-Sim PTX: 6000000 instructions simulated : ctaid=(7,0,0) tid=(95,0,0)
GPGPU-Sim uArch: cycles simulated: 178000  inst.: 5952416 (ipc=33.4) sim_rate=42517 (inst/sec) elapsed = 0:0:02:20 / Tue Apr 16 16:58:50 2019
GPGPU-Sim uArch: cycles simulated: 179500  inst.: 5997216 (ipc=33.4) sim_rate=42533 (inst/sec) elapsed = 0:0:02:21 / Tue Apr 16 16:58:51 2019
GPGPU-Sim PTX: 6100000 instructions simulated : ctaid=(8,1,0) tid=(95,0,0)
GPGPU-Sim uArch: cycles simulated: 181000  inst.: 6037344 (ipc=33.4) sim_rate=42516 (inst/sec) elapsed = 0:0:02:22 / Tue Apr 16 16:58:52 2019
GPGPU-Sim uArch: cycles simulated: 182000  inst.: 6072672 (ipc=33.4) sim_rate=42466 (inst/sec) elapsed = 0:0:02:23 / Tue Apr 16 16:58:53 2019
GPGPU-Sim uArch: cycles simulated: 183500  inst.: 6120832 (ipc=33.4) sim_rate=42505 (inst/sec) elapsed = 0:0:02:24 / Tue Apr 16 16:58:54 2019
GPGPU-Sim PTX: 6200000 instructions simulated : ctaid=(5,0,0) tid=(95,0,0)
GPGPU-Sim uArch: cycles simulated: 184500  inst.: 6151744 (ipc=33.3) sim_rate=42425 (inst/sec) elapsed = 0:0:02:25 / Tue Apr 16 16:58:55 2019
GPGPU-Sim uArch: cycles simulated: 186000  inst.: 6201728 (ipc=33.3) sim_rate=42477 (inst/sec) elapsed = 0:0:02:26 / Tue Apr 16 16:58:56 2019
GPGPU-Sim PTX: 6300000 instructions simulated : ctaid=(2,0,0) tid=(95,0,0)
GPGPU-Sim uArch: cycles simulated: 187000  inst.: 6236864 (ipc=33.4) sim_rate=42427 (inst/sec) elapsed = 0:0:02:27 / Tue Apr 16 16:58:57 2019
GPGPU-Sim uArch: cycles simulated: 188500  inst.: 6278272 (ipc=33.3) sim_rate=42420 (inst/sec) elapsed = 0:0:02:28 / Tue Apr 16 16:58:58 2019
GPGPU-Sim uArch: cycles simulated: 190000  inst.: 6323552 (ipc=33.3) sim_rate=42439 (inst/sec) elapsed = 0:0:02:29 / Tue Apr 16 16:58:59 2019
GPGPU-Sim PTX: 6400000 instructions simulated : ctaid=(5,0,0) tid=(223,0,0)
GPGPU-Sim uArch: cycles simulated: 191000  inst.: 6353248 (ipc=33.3) sim_rate=42354 (inst/sec) elapsed = 0:0:02:30 / Tue Apr 16 16:59:00 2019
GPGPU-Sim uArch: cycles simulated: 192500  inst.: 6388768 (ipc=33.2) sim_rate=42309 (inst/sec) elapsed = 0:0:02:31 / Tue Apr 16 16:59:01 2019
GPGPU-Sim uArch: cycles simulated: 193500  inst.: 6417600 (ipc=33.2) sim_rate=42221 (inst/sec) elapsed = 0:0:02:32 / Tue Apr 16 16:59:02 2019
GPGPU-Sim PTX: 6500000 instructions simulated : ctaid=(9,0,0) tid=(95,0,0)
GPGPU-Sim uArch: cycles simulated: 195000  inst.: 6464608 (ipc=33.2) sim_rate=42252 (inst/sec) elapsed = 0:0:02:33 / Tue Apr 16 16:59:03 2019
GPGPU-Sim uArch: cycles simulated: 196000  inst.: 6495552 (ipc=33.1) sim_rate=42178 (inst/sec) elapsed = 0:0:02:34 / Tue Apr 16 16:59:04 2019
GPGPU-Sim PTX: 6600000 instructions simulated : ctaid=(8,0,0) tid=(223,0,0)
GPGPU-Sim uArch: cycles simulated: 197500  inst.: 6545312 (ipc=33.1) sim_rate=42227 (inst/sec) elapsed = 0:0:02:35 / Tue Apr 16 16:59:05 2019
GPGPU-Sim uArch: cycles simulated: 199000  inst.: 6583808 (ipc=33.1) sim_rate=42203 (inst/sec) elapsed = 0:0:02:36 / Tue Apr 16 16:59:06 2019
GPGPU-Sim uArch: cycles simulated: 200000  inst.: 6615584 (ipc=33.1) sim_rate=42137 (inst/sec) elapsed = 0:0:02:37 / Tue Apr 16 16:59:07 2019
GPGPU-Sim PTX: 6700000 instructions simulated : ctaid=(2,1,0) tid=(223,0,0)
GPGPU-Sim uArch: cycles simulated: 201500  inst.: 6656512 (ipc=33.0) sim_rate=42129 (inst/sec) elapsed = 0:0:02:38 / Tue Apr 16 16:59:08 2019
GPGPU-Sim uArch: cycles simulated: 202500  inst.: 6686304 (ipc=33.0) sim_rate=42052 (inst/sec) elapsed = 0:0:02:39 / Tue Apr 16 16:59:09 2019
GPGPU-Sim PTX: 6800000 instructions simulated : ctaid=(4,0,0) tid=(223,0,0)
GPGPU-Sim uArch: cycles simulated: 204000  inst.: 6728928 (ipc=33.0) sim_rate=42055 (inst/sec) elapsed = 0:0:02:40 / Tue Apr 16 16:59:10 2019
GPGPU-Sim uArch: cycles simulated: 205000  inst.: 6762080 (ipc=33.0) sim_rate=42000 (inst/sec) elapsed = 0:0:02:41 / Tue Apr 16 16:59:11 2019
GPGPU-Sim uArch: cycles simulated: 206500  inst.: 6812032 (ipc=33.0) sim_rate=42049 (inst/sec) elapsed = 0:0:02:42 / Tue Apr 16 16:59:12 2019
GPGPU-Sim PTX: 6900000 instructions simulated : ctaid=(0,2,0) tid=(31,0,0)
GPGPU-Sim uArch: cycles simulated: 208000  inst.: 6857696 (ipc=33.0) sim_rate=42071 (inst/sec) elapsed = 0:0:02:43 / Tue Apr 16 16:59:13 2019
GPGPU-Sim uArch: cycles simulated: 209000  inst.: 6895232 (ipc=33.0) sim_rate=42044 (inst/sec) elapsed = 0:0:02:44 / Tue Apr 16 16:59:14 2019
GPGPU-Sim PTX: 7000000 instructions simulated : ctaid=(0,1,0) tid=(63,0,0)
GPGPU-Sim uArch: cycles simulated: 210500  inst.: 6945056 (ipc=33.0) sim_rate=42091 (inst/sec) elapsed = 0:0:02:45 / Tue Apr 16 16:59:15 2019
GPGPU-Sim uArch: cycles simulated: 211500  inst.: 6971296 (ipc=33.0) sim_rate=41995 (inst/sec) elapsed = 0:0:02:46 / Tue Apr 16 16:59:16 2019
GPGPU-Sim uArch: cycles simulated: 213000  inst.: 7018720 (ipc=33.0) sim_rate=42028 (inst/sec) elapsed = 0:0:02:47 / Tue Apr 16 16:59:17 2019
GPGPU-Sim PTX: 7100000 instructions simulated : ctaid=(9,0,0) tid=(159,0,0)
GPGPU-Sim uArch: cycles simulated: 214000  inst.: 7045568 (ipc=32.9) sim_rate=41937 (inst/sec) elapsed = 0:0:02:48 / Tue Apr 16 16:59:18 2019
GPGPU-Sim uArch: cycles simulated: 215500  inst.: 7089088 (ipc=32.9) sim_rate=41947 (inst/sec) elapsed = 0:0:02:49 / Tue Apr 16 16:59:19 2019
GPGPU-Sim PTX: 7200000 instructions simulated : ctaid=(3,2,0) tid=(95,0,0)
GPGPU-Sim uArch: cycles simulated: 216500  inst.: 7122464 (ipc=32.9) sim_rate=41896 (inst/sec) elapsed = 0:0:02:50 / Tue Apr 16 16:59:20 2019
GPGPU-Sim uArch: cycles simulated: 218000  inst.: 7164608 (ipc=32.9) sim_rate=41898 (inst/sec) elapsed = 0:0:02:51 / Tue Apr 16 16:59:21 2019
GPGPU-Sim uArch: cycles simulated: 219500  inst.: 7205088 (ipc=32.8) sim_rate=41890 (inst/sec) elapsed = 0:0:02:52 / Tue Apr 16 16:59:22 2019
GPGPU-Sim PTX: 7300000 instructions simulated : ctaid=(1,1,0) tid=(31,0,0)
GPGPU-Sim uArch: cycles simulated: 220500  inst.: 7239840 (ipc=32.8) sim_rate=41848 (inst/sec) elapsed = 0:0:02:53 / Tue Apr 16 16:59:23 2019
GPGPU-Sim uArch: cycles simulated: 222000  inst.: 7285856 (ipc=32.8) sim_rate=41872 (inst/sec) elapsed = 0:0:02:54 / Tue Apr 16 16:59:24 2019
GPGPU-Sim uArch: cycles simulated: 223000  inst.: 7316096 (ipc=32.8) sim_rate=41806 (inst/sec) elapsed = 0:0:02:55 / Tue Apr 16 16:59:25 2019
GPGPU-Sim PTX: 7400000 instructions simulated : ctaid=(0,2,0) tid=(95,0,0)
GPGPU-Sim uArch: cycles simulated: 224500  inst.: 7368800 (ipc=32.8) sim_rate=41868 (inst/sec) elapsed = 0:0:02:56 / Tue Apr 16 16:59:26 2019
GPGPU-Sim uArch: cycles simulated: 225500  inst.: 7395104 (ipc=32.8) sim_rate=41780 (inst/sec) elapsed = 0:0:02:57 / Tue Apr 16 16:59:27 2019
GPGPU-Sim PTX: 7500000 instructions simulated : ctaid=(3,1,0) tid=(31,0,0)
GPGPU-Sim uArch: cycles simulated: 227000  inst.: 7439296 (ipc=32.8) sim_rate=41793 (inst/sec) elapsed = 0:0:02:58 / Tue Apr 16 16:59:28 2019
GPGPU-Sim uArch: cycles simulated: 228000  inst.: 7468544 (ipc=32.8) sim_rate=41723 (inst/sec) elapsed = 0:0:02:59 / Tue Apr 16 16:59:29 2019
GPGPU-Sim uArch: cycles simulated: 229500  inst.: 7506336 (ipc=32.7) sim_rate=41701 (inst/sec) elapsed = 0:0:03:00 / Tue Apr 16 16:59:30 2019
GPGPU-Sim PTX: 7600000 instructions simulated : ctaid=(4,0,0) tid=(159,0,0)
GPGPU-Sim uArch: cycles simulated: 231000  inst.: 7551264 (ipc=32.7) sim_rate=41719 (inst/sec) elapsed = 0:0:03:01 / Tue Apr 16 16:59:31 2019
GPGPU-Sim uArch: cycles simulated: 232000  inst.: 7579168 (ipc=32.7) sim_rate=41643 (inst/sec) elapsed = 0:0:03:02 / Tue Apr 16 16:59:32 2019
GPGPU-Sim uArch: cycles simulated: 233500  inst.: 7617440 (ipc=32.6) sim_rate=41625 (inst/sec) elapsed = 0:0:03:03 / Tue Apr 16 16:59:33 2019
GPGPU-Sim PTX: 7700000 instructions simulated : ctaid=(1,2,0) tid=(223,0,0)
GPGPU-Sim uArch: cycles simulated: 234500  inst.: 7642752 (ipc=32.6) sim_rate=41536 (inst/sec) elapsed = 0:0:03:04 / Tue Apr 16 16:59:34 2019
GPGPU-Sim uArch: cycles simulated: 236000  inst.: 7689472 (ipc=32.6) sim_rate=41564 (inst/sec) elapsed = 0:0:03:05 / Tue Apr 16 16:59:35 2019
GPGPU-Sim uArch: cycles simulated: 237000  inst.: 7718912 (ipc=32.6) sim_rate=41499 (inst/sec) elapsed = 0:0:03:06 / Tue Apr 16 16:59:36 2019
GPGPU-Sim PTX: 7800000 instructions simulated : ctaid=(2,2,0) tid=(223,0,0)
GPGPU-Sim uArch: cycles simulated: 238500  inst.: 7760800 (ipc=32.5) sim_rate=41501 (inst/sec) elapsed = 0:0:03:07 / Tue Apr 16 16:59:37 2019
GPGPU-Sim uArch: cycles simulated: 240000  inst.: 7798432 (ipc=32.5) sim_rate=41481 (inst/sec) elapsed = 0:0:03:08 / Tue Apr 16 16:59:38 2019
GPGPU-Sim PTX: 7900000 instructions simulated : ctaid=(1,0,0) tid=(159,0,0)
GPGPU-Sim uArch: cycles simulated: 241000  inst.: 7832096 (ipc=32.5) sim_rate=41439 (inst/sec) elapsed = 0:0:03:09 / Tue Apr 16 16:59:39 2019
GPGPU-Sim uArch: cycles simulated: 242500  inst.: 7870464 (ipc=32.5) sim_rate=41423 (inst/sec) elapsed = 0:0:03:10 / Tue Apr 16 16:59:40 2019
GPGPU-Sim uArch: cycles simulated: 243500  inst.: 7900320 (ipc=32.4) sim_rate=41362 (inst/sec) elapsed = 0:0:03:11 / Tue Apr 16 16:59:41 2019
GPGPU-Sim PTX: 8000000 instructions simulated : ctaid=(5,0,0) tid=(95,0,0)
GPGPU-Sim uArch: cycles simulated: 245000  inst.: 7941504 (ipc=32.4) sim_rate=41362 (inst/sec) elapsed = 0:0:03:12 / Tue Apr 16 16:59:42 2019
GPGPU-Sim uArch: cycles simulated: 246500  inst.: 7995200 (ipc=32.4) sim_rate=41425 (inst/sec) elapsed = 0:0:03:13 / Tue Apr 16 16:59:43 2019
GPGPU-Sim PTX: 8100000 instructions simulated : ctaid=(0,1,0) tid=(223,0,0)
GPGPU-Sim uArch: cycles simulated: 247500  inst.: 8023264 (ipc=32.4) sim_rate=41357 (inst/sec) elapsed = 0:0:03:14 / Tue Apr 16 16:59:44 2019
GPGPU-Sim uArch: cycles simulated: 249000  inst.: 8068224 (ipc=32.4) sim_rate=41375 (inst/sec) elapsed = 0:0:03:15 / Tue Apr 16 16:59:45 2019
GPGPU-Sim uArch: cycles simulated: 250000  inst.: 8099968 (ipc=32.4) sim_rate=41326 (inst/sec) elapsed = 0:0:03:16 / Tue Apr 16 16:59:46 2019
GPGPU-Sim PTX: 8200000 instructions simulated : ctaid=(4,2,0) tid=(159,0,0)
GPGPU-Sim uArch: cycles simulated: 251500  inst.: 8143840 (ipc=32.4) sim_rate=41339 (inst/sec) elapsed = 0:0:03:17 / Tue Apr 16 16:59:47 2019
GPGPU-Sim uArch: cycles simulated: 252500  inst.: 8171072 (ipc=32.4) sim_rate=41268 (inst/sec) elapsed = 0:0:03:18 / Tue Apr 16 16:59:48 2019
GPGPU-Sim uArch: cycles simulated: 254000  inst.: 8216736 (ipc=32.3) sim_rate=41290 (inst/sec) elapsed = 0:0:03:19 / Tue Apr 16 16:59:49 2019
GPGPU-Sim PTX: 8300000 instructions simulated : ctaid=(6,1,0) tid=(31,0,0)
GPGPU-Sim uArch: cycles simulated: 255500  inst.: 8255232 (ipc=32.3) sim_rate=41276 (inst/sec) elapsed = 0:0:03:20 / Tue Apr 16 16:59:50 2019
GPGPU-Sim uArch: cycles simulated: 256500  inst.: 8288448 (ipc=32.3) sim_rate=41236 (inst/sec) elapsed = 0:0:03:21 / Tue Apr 16 16:59:51 2019
GPGPU-Sim PTX: 8400000 instructions simulated : ctaid=(1,0,0) tid=(159,0,0)
GPGPU-Sim uArch: cycles simulated: 258000  inst.: 8325504 (ipc=32.3) sim_rate=41215 (inst/sec) elapsed = 0:0:03:22 / Tue Apr 16 16:59:52 2019
GPGPU-Sim uArch: cycles simulated: 259000  inst.: 8351552 (ipc=32.2) sim_rate=41140 (inst/sec) elapsed = 0:0:03:23 / Tue Apr 16 16:59:53 2019
GPGPU-Sim uArch: cycles simulated: 260500  inst.: 8398592 (ipc=32.2) sim_rate=41169 (inst/sec) elapsed = 0:0:03:24 / Tue Apr 16 16:59:54 2019
GPGPU-Sim PTX: 8500000 instructions simulated : ctaid=(7,2,0) tid=(223,0,0)
GPGPU-Sim uArch: cycles simulated: 262000  inst.: 8437024 (ipc=32.2) sim_rate=41156 (inst/sec) elapsed = 0:0:03:25 / Tue Apr 16 16:59:55 2019
GPGPU-Sim uArch: cycles simulated: 263000  inst.: 8463232 (ipc=32.2) sim_rate=41083 (inst/sec) elapsed = 0:0:03:26 / Tue Apr 16 16:59:56 2019
GPGPU-Sim uArch: cycles simulated: 264500  inst.: 8511264 (ipc=32.2) sim_rate=41117 (inst/sec) elapsed = 0:0:03:27 / Tue Apr 16 16:59:57 2019
GPGPU-Sim PTX: 8600000 instructions simulated : ctaid=(0,0,0) tid=(127,0,0)
GPGPU-Sim uArch: cycles simulated: 265500  inst.: 8538432 (ipc=32.2) sim_rate=41050 (inst/sec) elapsed = 0:0:03:28 / Tue Apr 16 16:59:58 2019
GPGPU-Sim uArch: cycles simulated: 267000  inst.: 8579520 (ipc=32.1) sim_rate=41050 (inst/sec) elapsed = 0:0:03:29 / Tue Apr 16 16:59:59 2019
GPGPU-Sim PTX: 8700000 instructions simulated : ctaid=(6,0,0) tid=(223,0,0)
GPGPU-Sim uArch: cycles simulated: 268500  inst.: 8619648 (ipc=32.1) sim_rate=41045 (inst/sec) elapsed = 0:0:03:30 / Tue Apr 16 17:00:00 2019
GPGPU-Sim uArch: cycles simulated: 269500  inst.: 8650688 (ipc=32.1) sim_rate=40998 (inst/sec) elapsed = 0:0:03:31 / Tue Apr 16 17:00:01 2019
GPGPU-Sim uArch: cycles simulated: 271000  inst.: 8698400 (ipc=32.1) sim_rate=41030 (inst/sec) elapsed = 0:0:03:32 / Tue Apr 16 17:00:02 2019
GPGPU-Sim PTX: 8800000 instructions simulated : ctaid=(1,0,0) tid=(159,0,0)
GPGPU-Sim uArch: cycles simulated: 272000  inst.: 8733152 (ipc=32.1) sim_rate=41000 (inst/sec) elapsed = 0:0:03:33 / Tue Apr 16 17:00:03 2019
GPGPU-Sim uArch: cycles simulated: 273500  inst.: 8769216 (ipc=32.1) sim_rate=40977 (inst/sec) elapsed = 0:0:03:34 / Tue Apr 16 17:00:04 2019
GPGPU-Sim uArch: cycles simulated: 274500  inst.: 8799648 (ipc=32.1) sim_rate=40928 (inst/sec) elapsed = 0:0:03:35 / Tue Apr 16 17:00:05 2019
GPGPU-Sim PTX: 8900000 instructions simulated : ctaid=(3,2,0) tid=(95,0,0)
GPGPU-Sim uArch: cycles simulated: 276000  inst.: 8848064 (ipc=32.1) sim_rate=40963 (inst/sec) elapsed = 0:0:03:36 / Tue Apr 16 17:00:06 2019
GPGPU-Sim uArch: cycles simulated: 277500  inst.: 8891840 (ipc=32.0) sim_rate=40976 (inst/sec) elapsed = 0:0:03:37 / Tue Apr 16 17:00:07 2019
GPGPU-Sim PTX: 9000000 instructions simulated : ctaid=(4,0,0) tid=(31,0,0)
GPGPU-Sim uArch: cycles simulated: 278500  inst.: 8925248 (ipc=32.0) sim_rate=40941 (inst/sec) elapsed = 0:0:03:38 / Tue Apr 16 17:00:08 2019
GPGPU-Sim uArch: cycles simulated: 280000  inst.: 8964192 (ipc=32.0) sim_rate=40932 (inst/sec) elapsed = 0:0:03:39 / Tue Apr 16 17:00:09 2019
GPGPU-Sim uArch: cycles simulated: 281000  inst.: 8992448 (ipc=32.0) sim_rate=40874 (inst/sec) elapsed = 0:0:03:40 / Tue Apr 16 17:00:10 2019
GPGPU-Sim PTX: 9100000 instructions simulated : ctaid=(10,2,0) tid=(31,0,0)
GPGPU-Sim uArch: cycles simulated: 282500  inst.: 9035776 (ipc=32.0) sim_rate=40885 (inst/sec) elapsed = 0:0:03:41 / Tue Apr 16 17:00:11 2019
GPGPU-Sim uArch: cycles simulated: 284000  inst.: 9082432 (ipc=32.0) sim_rate=40911 (inst/sec) elapsed = 0:0:03:42 / Tue Apr 16 17:00:12 2019
GPGPU-Sim uArch: cycles simulated: 285000  inst.: 9108320 (ipc=32.0) sim_rate=40844 (inst/sec) elapsed = 0:0:03:43 / Tue Apr 16 17:00:13 2019
GPGPU-Sim PTX: 9200000 instructions simulated : ctaid=(3,1,0) tid=(223,0,0)
GPGPU-Sim uArch: cycles simulated: 286500  inst.: 9155104 (ipc=32.0) sim_rate=40871 (inst/sec) elapsed = 0:0:03:44 / Tue Apr 16 17:00:14 2019
GPGPU-Sim uArch: cycles simulated: 287500  inst.: 9183968 (ipc=31.9) sim_rate=40817 (inst/sec) elapsed = 0:0:03:45 / Tue Apr 16 17:00:15 2019
GPGPU-Sim PTX: 9300000 instructions simulated : ctaid=(6,0,0) tid=(95,0,0)
GPGPU-Sim uArch: cycles simulated: 289000  inst.: 9222944 (ipc=31.9) sim_rate=40809 (inst/sec) elapsed = 0:0:03:46 / Tue Apr 16 17:00:16 2019
GPGPU-Sim uArch: cycles simulated: 290500  inst.: 9265184 (ipc=31.9) sim_rate=40815 (inst/sec) elapsed = 0:0:03:47 / Tue Apr 16 17:00:17 2019
GPGPU-Sim uArch: cycles simulated: 291500  inst.: 9291328 (ipc=31.9) sim_rate=40751 (inst/sec) elapsed = 0:0:03:48 / Tue Apr 16 17:00:18 2019
GPGPU-Sim PTX: 9400000 instructions simulated : ctaid=(3,1,0) tid=(127,0,0)
GPGPU-Sim uArch: cycles simulated: 293000  inst.: 9341024 (ipc=31.9) sim_rate=40790 (inst/sec) elapsed = 0:0:03:49 / Tue Apr 16 17:00:19 2019
GPGPU-Sim uArch: cycles simulated: 294000  inst.: 9372384 (ipc=31.9) sim_rate=40749 (inst/sec) elapsed = 0:0:03:50 / Tue Apr 16 17:00:20 2019
GPGPU-Sim uArch: cycles simulated: 295500  inst.: 9417088 (ipc=31.9) sim_rate=40766 (inst/sec) elapsed = 0:0:03:51 / Tue Apr 16 17:00:21 2019
GPGPU-Sim PTX: 9500000 instructions simulated : ctaid=(6,2,0) tid=(31,0,0)
GPGPU-Sim uArch: cycles simulated: 297000  inst.: 9456288 (ipc=31.8) sim_rate=40759 (inst/sec) elapsed = 0:0:03:52 / Tue Apr 16 17:00:22 2019
GPGPU-Sim uArch: cycles simulated: 298000  inst.: 9491264 (ipc=31.8) sim_rate=40735 (inst/sec) elapsed = 0:0:03:53 / Tue Apr 16 17:00:23 2019
GPGPU-Sim PTX: 9600000 instructions simulated : ctaid=(0,2,0) tid=(95,0,0)
GPGPU-Sim uArch: cycles simulated: 299500  inst.: 9535360 (ipc=31.8) sim_rate=40749 (inst/sec) elapsed = 0:0:03:54 / Tue Apr 16 17:00:24 2019
GPGPU-Sim uArch: cycles simulated: 300500  inst.: 9563296 (ipc=31.8) sim_rate=40694 (inst/sec) elapsed = 0:0:03:55 / Tue Apr 16 17:00:25 2019
GPGPU-Sim uArch: cycles simulated: 302000  inst.: 9607520 (ipc=31.8) sim_rate=40709 (inst/sec) elapsed = 0:0:03:56 / Tue Apr 16 17:00:26 2019
GPGPU-Sim PTX: 9700000 instructions simulated : ctaid=(0,2,0) tid=(31,0,0)
GPGPU-Sim uArch: cycles simulated: 303500  inst.: 9653472 (ipc=31.8) sim_rate=40731 (inst/sec) elapsed = 0:0:03:57 / Tue Apr 16 17:00:27 2019
GPGPU-Sim uArch: cycles simulated: 304500  inst.: 9684416 (ipc=31.8) sim_rate=40690 (inst/sec) elapsed = 0:0:03:58 / Tue Apr 16 17:00:28 2019
GPGPU-Sim PTX: 9800000 instructions simulated : ctaid=(9,0,0) tid=(31,0,0)
GPGPU-Sim uArch: cycles simulated: 306000  inst.: 9735200 (ipc=31.8) sim_rate=40733 (inst/sec) elapsed = 0:0:03:59 / Tue Apr 16 17:00:29 2019
GPGPU-Sim uArch: cycles simulated: 307000  inst.: 9760640 (ipc=31.8) sim_rate=40669 (inst/sec) elapsed = 0:0:04:00 / Tue Apr 16 17:00:30 2019
GPGPU-Sim uArch: cycles simulated: 308500  inst.: 9798368 (ipc=31.8) sim_rate=40657 (inst/sec) elapsed = 0:0:04:01 / Tue Apr 16 17:00:31 2019
GPGPU-Sim PTX: 9900000 instructions simulated : ctaid=(3,2,0) tid=(31,0,0)
GPGPU-Sim uArch: cycles simulated: 309500  inst.: 9825152 (ipc=31.7) sim_rate=40599 (inst/sec) elapsed = 0:0:04:02 / Tue Apr 16 17:00:32 2019
GPGPU-Sim uArch: cycles simulated: 311000  inst.: 9861312 (ipc=31.7) sim_rate=40581 (inst/sec) elapsed = 0:0:04:03 / Tue Apr 16 17:00:33 2019
GPGPU-Sim uArch: cycles simulated: 312500  inst.: 9900256 (ipc=31.7) sim_rate=40574 (inst/sec) elapsed = 0:0:04:04 / Tue Apr 16 17:00:34 2019
GPGPU-Sim PTX: 10000000 instructions simulated : ctaid=(2,1,0) tid=(31,0,0)
GPGPU-Sim uArch: cycles simulated: 313500  inst.: 9932768 (ipc=31.7) sim_rate=40541 (inst/sec) elapsed = 0:0:04:05 / Tue Apr 16 17:00:35 2019
GPGPU-Sim uArch: cycles simulated: 315000  inst.: 9971072 (ipc=31.7) sim_rate=40532 (inst/sec) elapsed = 0:0:04:06 / Tue Apr 16 17:00:36 2019
GPGPU-Sim uArch: cycles simulated: 316000  inst.: 10001632 (ipc=31.7) sim_rate=40492 (inst/sec) elapsed = 0:0:04:07 / Tue Apr 16 17:00:37 2019
GPGPU-Sim PTX: 10100000 instructions simulated : ctaid=(5,1,0) tid=(31,0,0)
GPGPU-Sim uArch: cycles simulated: 317500  inst.: 10042336 (ipc=31.6) sim_rate=40493 (inst/sec) elapsed = 0:0:04:08 / Tue Apr 16 17:00:38 2019
GPGPU-Sim uArch: cycles simulated: 318500  inst.: 10071648 (ipc=31.6) sim_rate=40448 (inst/sec) elapsed = 0:0:04:09 / Tue Apr 16 17:00:39 2019
GPGPU-Sim uArch: cycles simulated: 320000  inst.: 10116608 (ipc=31.6) sim_rate=40466 (inst/sec) elapsed = 0:0:04:10 / Tue Apr 16 17:00:40 2019
GPGPU-Sim PTX: 10200000 instructions simulated : ctaid=(0,2,0) tid=(31,0,0)
GPGPU-Sim uArch: cycles simulated: 321500  inst.: 10159136 (ipc=31.6) sim_rate=40474 (inst/sec) elapsed = 0:0:04:11 / Tue Apr 16 17:00:41 2019
GPGPU-Sim uArch: cycles simulated: 322500  inst.: 10188800 (ipc=31.6) sim_rate=40431 (inst/sec) elapsed = 0:0:04:12 / Tue Apr 16 17:00:42 2019
GPGPU-Sim PTX: 10300000 instructions simulated : ctaid=(0,0,0) tid=(31,0,0)
GPGPU-Sim uArch: cycles simulated: 324000  inst.: 10224992 (ipc=31.6) sim_rate=40414 (inst/sec) elapsed = 0:0:04:13 / Tue Apr 16 17:00:43 2019
GPGPU-Sim uArch: cycles simulated: 325500  inst.: 10268352 (ipc=31.5) sim_rate=40426 (inst/sec) elapsed = 0:0:04:14 / Tue Apr 16 17:00:44 2019
GPGPU-Sim uArch: cycles simulated: 326500  inst.: 10289888 (ipc=31.5) sim_rate=40352 (inst/sec) elapsed = 0:0:04:15 / Tue Apr 16 17:00:45 2019
GPGPU-Sim PTX: 10400000 instructions simulated : ctaid=(0,0,0) tid=(31,0,0)
GPGPU-Sim uArch: cycles simulated: 328000  inst.: 10330240 (ipc=31.5) sim_rate=40352 (inst/sec) elapsed = 0:0:04:16 / Tue Apr 16 17:00:46 2019
GPGPU-Sim uArch: cycles simulated: 329000  inst.: 10356416 (ipc=31.5) sim_rate=40297 (inst/sec) elapsed = 0:0:04:17 / Tue Apr 16 17:00:47 2019
GPGPU-Sim uArch: cycles simulated: 330500  inst.: 10395264 (ipc=31.5) sim_rate=40291 (inst/sec) elapsed = 0:0:04:18 / Tue Apr 16 17:00:48 2019
GPGPU-Sim PTX: 10500000 instructions simulated : ctaid=(5,0,0) tid=(63,0,0)
GPGPU-Sim uArch: cycles simulated: 331500  inst.: 10430368 (ipc=31.5) sim_rate=40271 (inst/sec) elapsed = 0:0:04:19 / Tue Apr 16 17:00:49 2019
GPGPU-Sim uArch: cycles simulated: 333000  inst.: 10471008 (ipc=31.4) sim_rate=40273 (inst/sec) elapsed = 0:0:04:20 / Tue Apr 16 17:00:50 2019
GPGPU-Sim uArch: cycles simulated: 334500  inst.: 10516704 (ipc=31.4) sim_rate=40293 (inst/sec) elapsed = 0:0:04:21 / Tue Apr 16 17:00:51 2019
GPGPU-Sim PTX: 10600000 instructions simulated : ctaid=(1,1,0) tid=(159,0,0)
GPGPU-Sim uArch: cycles simulated: 335500  inst.: 10546688 (ipc=31.4) sim_rate=40254 (inst/sec) elapsed = 0:0:04:22 / Tue Apr 16 17:00:52 2019
GPGPU-Sim uArch: cycles simulated: 337000  inst.: 10585568 (ipc=31.4) sim_rate=40249 (inst/sec) elapsed = 0:0:04:23 / Tue Apr 16 17:00:53 2019
GPGPU-Sim uArch: cycles simulated: 338000  inst.: 10610144 (ipc=31.4) sim_rate=40189 (inst/sec) elapsed = 0:0:04:24 / Tue Apr 16 17:00:54 2019
GPGPU-Sim PTX: 10700000 instructions simulated : ctaid=(1,2,0) tid=(95,0,0)
GPGPU-Sim uArch: cycles simulated: 339500  inst.: 10654368 (ipc=31.4) sim_rate=40205 (inst/sec) elapsed = 0:0:04:25 / Tue Apr 16 17:00:55 2019
GPGPU-Sim uArch: cycles simulated: 341000  inst.: 10700704 (ipc=31.4) sim_rate=40228 (inst/sec) elapsed = 0:0:04:26 / Tue Apr 16 17:00:56 2019
GPGPU-Sim PTX: 10800000 instructions simulated : ctaid=(3,2,0) tid=(95,0,0)
GPGPU-Sim uArch: cycles simulated: 342000  inst.: 10733376 (ipc=31.4) sim_rate=40199 (inst/sec) elapsed = 0:0:04:27 / Tue Apr 16 17:00:57 2019
GPGPU-Sim uArch: cycles simulated: 343500  inst.: 10768544 (ipc=31.3) sim_rate=40181 (inst/sec) elapsed = 0:0:04:28 / Tue Apr 16 17:00:58 2019
GPGPU-Sim uArch: cycles simulated: 344500  inst.: 10796416 (ipc=31.3) sim_rate=40135 (inst/sec) elapsed = 0:0:04:29 / Tue Apr 16 17:00:59 2019
GPGPU-Sim PTX: 10900000 instructions simulated : ctaid=(2,2,0) tid=(31,0,0)
GPGPU-Sim uArch: cycles simulated: 346000  inst.: 10834336 (ipc=31.3) sim_rate=40127 (inst/sec) elapsed = 0:0:04:30 / Tue Apr 16 17:01:00 2019
GPGPU-Sim uArch: cycles simulated: 347500  inst.: 10874944 (ipc=31.3) sim_rate=40128 (inst/sec) elapsed = 0:0:04:31 / Tue Apr 16 17:01:01 2019
GPGPU-Sim uArch: cycles simulated: 348500  inst.: 10903456 (ipc=31.3) sim_rate=40086 (inst/sec) elapsed = 0:0:04:32 / Tue Apr 16 17:01:02 2019
GPGPU-Sim PTX: 11000000 instructions simulated : ctaid=(4,0,0) tid=(31,0,0)
GPGPU-Sim uArch: cycles simulated: 350000  inst.: 10938112 (ipc=31.3) sim_rate=40066 (inst/sec) elapsed = 0:0:04:33 / Tue Apr 16 17:01:03 2019
GPGPU-Sim uArch: cycles simulated: 351500  inst.: 10978880 (ipc=31.2) sim_rate=40068 (inst/sec) elapsed = 0:0:04:34 / Tue Apr 16 17:01:04 2019
GPGPU-Sim uArch: cycles simulated: 352500  inst.: 11002688 (ipc=31.2) sim_rate=40009 (inst/sec) elapsed = 0:0:04:35 / Tue Apr 16 17:01:05 2019
GPGPU-Sim PTX: 11100000 instructions simulated : ctaid=(3,0,0) tid=(159,0,0)
GPGPU-Sim uArch: cycles simulated: 354000  inst.: 11044256 (ipc=31.2) sim_rate=40015 (inst/sec) elapsed = 0:0:04:36 / Tue Apr 16 17:01:06 2019
GPGPU-Sim uArch: cycles simulated: 355000  inst.: 11065888 (ipc=31.2) sim_rate=39949 (inst/sec) elapsed = 0:0:04:37 / Tue Apr 16 17:01:07 2019
GPGPU-Sim uArch: cycles simulated: 356500  inst.: 11102144 (ipc=31.1) sim_rate=39935 (inst/sec) elapsed = 0:0:04:38 / Tue Apr 16 17:01:08 2019
GPGPU-Sim PTX: 11200000 instructions simulated : ctaid=(0,2,0) tid=(95,0,0)
GPGPU-Sim uArch: cycles simulated: 358000  inst.: 11148480 (ipc=31.1) sim_rate=39958 (inst/sec) elapsed = 0:0:04:39 / Tue Apr 16 17:01:09 2019
GPGPU-Sim uArch: cycles simulated: 359000  inst.: 11179680 (ipc=31.1) sim_rate=39927 (inst/sec) elapsed = 0:0:04:40 / Tue Apr 16 17:01:10 2019
GPGPU-Sim PTX: 11300000 instructions simulated : ctaid=(7,1,0) tid=(95,0,0)
GPGPU-Sim uArch: cycles simulated: 360500  inst.: 11221216 (ipc=31.1) sim_rate=39933 (inst/sec) elapsed = 0:0:04:41 / Tue Apr 16 17:01:11 2019
GPGPU-Sim uArch: cycles simulated: 361500  inst.: 11246304 (ipc=31.1) sim_rate=39880 (inst/sec) elapsed = 0:0:04:42 / Tue Apr 16 17:01:12 2019
GPGPU-Sim uArch: cycles simulated: 363000  inst.: 11299296 (ipc=31.1) sim_rate=39926 (inst/sec) elapsed = 0:0:04:43 / Tue Apr 16 17:01:13 2019
GPGPU-Sim PTX: 11400000 instructions simulated : ctaid=(9,0,0) tid=(159,0,0)
GPGPU-Sim uArch: cycles simulated: 364500  inst.: 11340032 (ipc=31.1) sim_rate=39929 (inst/sec) elapsed = 0:0:04:44 / Tue Apr 16 17:01:14 2019
GPGPU-Sim uArch: cycles simulated: 365500  inst.: 11370656 (ipc=31.1) sim_rate=39897 (inst/sec) elapsed = 0:0:04:45 / Tue Apr 16 17:01:15 2019
GPGPU-Sim uArch: cycles simulated: 367000  inst.: 11416032 (ipc=31.1) sim_rate=39916 (inst/sec) elapsed = 0:0:04:46 / Tue Apr 16 17:01:16 2019
GPGPU-Sim PTX: 11500000 instructions simulated : ctaid=(0,0,0) tid=(223,0,0)
GPGPU-Sim uArch: cycles simulated: 368000  inst.: 11447232 (ipc=31.1) sim_rate=39885 (inst/sec) elapsed = 0:0:04:47 / Tue Apr 16 17:01:17 2019
GPGPU-Sim uArch: cycles simulated: 369500  inst.: 11489792 (ipc=31.1) sim_rate=39895 (inst/sec) elapsed = 0:0:04:48 / Tue Apr 16 17:01:18 2019
GPGPU-Sim PTX: 11600000 instructions simulated : ctaid=(1,2,0) tid=(31,0,0)
GPGPU-Sim uArch: cycles simulated: 371000  inst.: 11526656 (ipc=31.1) sim_rate=39884 (inst/sec) elapsed = 0:0:04:49 / Tue Apr 16 17:01:19 2019
GPGPU-Sim uArch: cycles simulated: 372000  inst.: 11553984 (ipc=31.1) sim_rate=39841 (inst/sec) elapsed = 0:0:04:50 / Tue Apr 16 17:01:20 2019
GPGPU-Sim uArch: cycles simulated: 373500  inst.: 11598208 (ipc=31.1) sim_rate=39856 (inst/sec) elapsed = 0:0:04:51 / Tue Apr 16 17:01:21 2019
GPGPU-Sim PTX: 11700000 instructions simulated : ctaid=(8,1,0) tid=(95,0,0)
GPGPU-Sim uArch: cycles simulated: 375000  inst.: 11636192 (ipc=31.0) sim_rate=39849 (inst/sec) elapsed = 0:0:04:52 / Tue Apr 16 17:01:22 2019
GPGPU-Sim uArch: cycles simulated: 376000  inst.: 11662432 (ipc=31.0) sim_rate=39803 (inst/sec) elapsed = 0:0:04:53 / Tue Apr 16 17:01:23 2019
[...]
dram[5]:  1.183827  1.183841  1.176269  1.173676  1.181685  1.176772  1.178428  1.176515  1.189629  1.179760  1.180057  1.185737  1.181963  1.179482  1.183152  1.182966 
average row locality = 2702629/2300672 = 1.174713
number of total memory accesses made:
dram[0]:         0         0         0         0         0         0         0         0         0         0         0         0         0         0         0         0 
dram[1]:         0         0         0         0         0         0         0         0         0         0         0         0         0         0         0         0 
dram[2]:         0         0         0         0         0         0         0         0         0         0         0         0         0         0         0         0 
dram[3]:         0         0         0         0         0         0         0         0         0         0         0         0         0         0         0         0 
dram[4]:         0         0         0         0         0         0         0         0         0         0         0         0         0         0         0         0 
dram[5]:         0         0         0         0         0         0         0         0         0         0         0         0         0         0         0         0 
total accesses: 0
min_bank_accesses = 0!
min_chip_accesses = 0!
number of total read accesses:
dram[0]:     27396     27681     27325     27413     27565     27836     28275     28324     27790     27950     27947     28175     26855     27182     27673     27710 
dram[1]:     27785     28087     27465     27784     27868     28362     28592     28553     28175     28711     28351     28223     27072     27665     27958     27798 
dram[2]:     28393     28224     28331     28077     28538     28550     29005     28774     28888     28826     28689     28890     28002     27607     28464     28345 
dram[3]:     28497     28292     27818     28043     28390     28560     28537     28917     28777     28606     28214     28489     27925     27801     27804     28349 
dram[4]:     27773     28158     27696     28194     28088     28552     28628     28816     28117     28831     28479     28665     27162     27773     27760     27973 
dram[5]:     28175     27980     28114     27376     28169     28432     28974     28174     28538     28759     28450     27751     27411     27649     28476     27576 
total reads: 2700837
bank skew: 29005/26855 = 1.08
chip skew: 455603/443097 = 1.03
number of total write accesses:
dram[0]:        64        64         0         0         0         0         0         0         0         0         0         0        20        20        64        64 
dram[1]:        64        64         0         0         0         0         0         0         0         0         0         0        20        20        64        64 
dram[2]:        64        64         0         0         0         0         0         0         0         0         0         0        20        24        64        64 
dram[3]:        64        64         0         0         0         0         0         0         0         0         0         0        20        24        64        64 
dram[4]:        64        64         0         0         0         0         0         0         0         0         0         0        20        24        64        64 
dram[5]:        64        64         0         0         0         0         0         0         0         0         0         0        20        24        64        64 
total reads: 1792
min_bank_accesses = 0!
chip skew: 300/296 = 1.01
average mf latency per bank:
dram[0]:       2645      2715      3316      3393      2656      2732      2682      2739      2685      2804      2610      2653      2688      2757      2632      2733
dram[1]:       2847      2725      3697      3402      2901      2731      2903      2776      2916      2810      2810      2701      2954      2774      2868      2777
dram[2]:       2751      2651      3432      3283      2782      2660      2747      2717      2832      2656      2686      2608      2790      2725      2713      2645
dram[3]:       2566      2580      3231      3155      2633      2614      2616      2639      2644      2625      2571      2606      2599      2642      2652      2604
dram[4]:       2617      2576      3205      3013      2582      2580      2622      2599      2621      2628      2534      2519      2656      2632      2577      2573
dram[5]:       2676      2300      3353      2387      2701      2324      2718      2368      2730      2372      2657      2327      2749      2348      2679      2381
maximum mf latency per bank:
dram[0]:       1107      1021      1026      1032      1177      1054      1216      1052      1098      1069      1001      1124      1047       987      1080      1000
dram[1]:       1079      1080      1040      1062      1036      1092      1161      1040      1019      1028      1032      1009      1127      1025      1091      1084
dram[2]:       1162      1089      1061      1047      1091      1002      1108      1029      1180      1123      1118      1083      1047      1046      1082      1057
dram[3]:       1069      1028      1085      1043      1067      1022      1066      1032      1141      1072      1036      1068      1115      1106      1032      1096
dram[4]:       1085      1046      1037      1004      1130      1080      1055      1056      1181      1031      1138      1036      1175      1020      1043      1066
dram[5]:       1154      1013      1054       936      1034       948      1038       943      1027       893      1041      1003      1130       992      1043       952

Number of Memory Banks Accessed per Memory Operation per Warp (from 0):
0	0	0	0	0	0	0	0	0	0	0	0	0	0	0	0	0	0	0	0	0	0	0	0	0	0	0	0	0	0	0	0	0	0	0	0	0	0	0	0	0	0	0	0	0	0	0	0	0	0	0	0	0	0	0	0	0	0	0	0	0	0	0	0	0	0	0	0	0	0	0	0	0	0	0	0	0	0	0	0	0	0	0	0	0	0	0	0	0	0	0	0	0	0	0	0	
Average # of Memory Banks Accessed per Memory Operation per Warp=-nan

position of mrq chosen
0	0	0	0	0	0	0	0	0	0	0	0	0	0	0	0	

average position of mrq chosen = -nan
Memory Partition 0: 
Cache L2_bank_000:
MSHR contents

Cache L2_bank_001:
MSHR contents

In Dram Latency Queue (total = 0): 
DRAM[0]: 16 bks, busW=4 BL=8 CL=12, tRRD=2 tCCD=6, tRCD=12 tRAS=28 tRP=12 tRC=40
n_cmd=21923004 n_nop=20280346 n_act=377944 n_pre=377928 n_req=443393 n_rd=886194 n_write=592 bw_util=0.0809
n_activity=11888619 dram_eff=0.1492
bk0: 54792a 21181397i bk1: 55362a 21177881i bk2: 54650a 21186192i bk3: 54826a 21182286i bk4: 55130a 21176699i bk5: 55672a 21170524i bk6: 56550a 21157188i bk7: 56648a 21154430i bk8: 55580a 21173017i bk9: 55900a 21168788i bk10: 55894a 21162716i bk11: 56350a 21160660i bk12: 53710a 21192882i bk13: 54364a 21182513i bk14: 55346a 21170391i bk15: 55420a 21167945i 
dram_util_bins: 0 0 0 0 0 0 0 0 0 0
dram_eff_bins: 0 0 0 0 0 0 0 0 0 0
mrqq: max=16 avg=0.0282048
Memory Partition 1: 
Cache L2_bank_002:
MSHR contents

Cache L2_bank_003:
MSHR contents
MSHR: tag=0x81e4bb80, atomic=0 1 entries : 0x7fb19558a470 :  mf: uid=243663544, sid00:w15, part=1, addr=0x81e4bb80, load , size=128, unknown  status = IN_PARTITION_DRAM (16608335), 

In Dram Latency Queue (total = 0): 
DRAM[1]: 16 bks, busW=4 BL=8 CL=12, tRRD=2 tCCD=6, tRCD=12 tRAS=28 tRP=12 tRC=40
n_cmd=21923004 n_nop=20262648 n_act=381441 n_pre=381425 n_req=448745 n_rd=896898 n_write=592 bw_util=0.08188
n_activity=12031844 dram_eff=0.1492
bk0: 55570a 21174875i bk1: 56174a 21171254i bk2: 54930a 21184011i bk3: 55568a 21175468i bk4: 55736a 21170287i bk5: 56724a 21157554i bk6: 57184a 21147383i bk7: 57106a 21150085i bk8: 56350a 21165461i bk9: 57422a 21151838i bk10: 56702a 21156284i bk11: 56446a 21161389i bk12: 54144a 21189248i bk13: 55330a 21176360i bk14: 55916a 21165293i bk15: 55596a 21172845i 
dram_util_bins: 0 0 0 0 0 0 0 0 0 0
dram_eff_bins: 0 0 0 0 0 0 0 0 0 0
mrqq: max=16 avg=0.0259806
Memory Partition 2: 
Cache L2_bank_004:
MSHR contents

Cache L2_bank_005:
MSHR contents

In Dram Latency Queue (total = 0): 
DRAM[2]: 16 bks, busW=4 BL=8 CL=12, tRRD=2 tCCD=6, tRCD=12 tRAS=28 tRP=12 tRC=40
n_cmd=21923004 n_nop=20232464 n_act=389375 n_pre=389359 n_req=455903 n_rd=911206 n_write=600 bw_util=0.08318
n_activity=11981064 dram_eff=0.1522
bk0: 56786a 21153875i bk1: 56448a 21156641i bk2: 56662a 21152938i bk3: 56154a 21159255i bk4: 57076a 21142504i bk5: 57100a 21144571i bk6: 58010a 21127750i bk7: 57548a 21137431i bk8: 57776a 21136382i bk9: 57652a 21136383i bk10: 57378a 21138680i bk11: 57780a 21135255i bk12: 56004a 21156339i bk13: 55214a 21167563i bk14: 56928a 21141084i bk15: 56690a 21149746i 
dram_util_bins: 0 0 0 0 0 0 0 0 0 0
dram_eff_bins: 0 0 0 0 0 0 0 0 0 0
mrqq: max=16 avg=0.0328997
Memory Partition 3: 
Cache L2_bank_006:
MSHR contents

Cache L2_bank_007:
MSHR contents

In Dram Latency Queue (total = 0): 
DRAM[3]: 16 bks, busW=4 BL=8 CL=12, tRRD=2 tCCD=6, tRCD=12 tRAS=28 tRP=12 tRC=40
n_cmd=21923004 n_nop=20245536 n_act=385423 n_pre=385407 n_req=453319 n_rd=906038 n_write=600 bw_util=0.08271
n_activity=11925080 dram_eff=0.1521
bk0: 56994a 21155544i bk1: 56584a 21159708i bk2: 55636a 21167442i bk3: 56086a 21162066i bk4: 56780a 21153748i bk5: 57120a 21147725i bk6: 57074a 21148193i bk7: 57834a 21138129i bk8: 57554a 21145326i bk9: 57212a 21151749i bk10: 56428a 21156648i bk11: 56978a 21150814i bk12: 55850a 21166384i bk13: 55602a 21167228i bk14: 55608a 21169003i bk15: 56698a 21157140i 
dram_util_bins: 0 0 0 0 0 0 0 0 0 0
dram_eff_bins: 0 0 0 0 0 0 0 0 0 0
mrqq: max=16 avg=0.0284623
Memory Partition 4: 
Cache L2_bank_008:
MSHR contents

Cache L2_bank_009:
MSHR contents

In Dram Latency Queue (total = 0): 
DRAM[4]: 16 bks, busW=4 BL=8 CL=12, tRRD=2 tCCD=6, tRCD=12 tRAS=28 tRP=12 tRC=40
n_cmd=21923004 n_nop=20250786 n_act=385152 n_pre=385136 n_req=450965 n_rd=901330 n_write=600 bw_util=0.08228
n_activity=11874683 dram_eff=0.1519
bk0: 55546a 21169523i bk1: 56316a 21159727i bk2: 55392a 21168186i bk3: 56388a 21158803i bk4: 56176a 21156992i bk5: 57104a 21144366i bk6: 57256a 21140090i bk7: 57632a 21136842i bk8: 56234a 21157851i bk9: 57662a 21140182i bk10: 56958a 21147066i bk11: 57330a 21139945i bk12: 54324a 21179051i bk13: 55546a 21168273i bk14: 55520a 21162435i bk15: 55946a 21157451i 
dram_util_bins: 0 0 0 0 0 0 0 0 0 0
dram_eff_bins: 0 0 0 0 0 0 0 0 0 0
mrqq: max=16 avg=0.0306745
Memory Partition 5: 
Cache L2_bank_010:
MSHR contents

Cache L2_bank_011:
MSHR contents

In Dram Latency Queue (total = 0): 
DRAM[5]: 16 bks, busW=4 BL=8 CL=12, tRRD=2 tCCD=6, tRCD=12 tRAS=28 tRP=12 tRC=40
n_cmd=21923004 n_nop=20259736 n_act=381338 n_pre=381322 n_req=450304 n_rd=900008 n_write=600 bw_util=0.08216
n_activity=11933976 dram_eff=0.1509
bk0: 56350a 21167468i bk1: 55960a 21172891i bk2: 56228a 21164334i bk3: 54752a 21185560i bk4: 56338a 21167038i bk5: 56864a 21158692i bk6: 57948a 21139966i bk7: 56348a 21161036i bk8: 57076a 21159211i bk9: 57518a 21149843i bk10: 56900a 21155393i bk11: 55502a 21178778i bk12: 54822a 21184627i bk13: 55298a 21179918i bk14: 56952a 21154923i bk15: 55152a 21179220i 
dram_util_bins: 0 0 0 0 0 0 0 0 0 0
dram_eff_bins: 0 0 0 0 0 0 0 0 0 0
mrqq: max=16 avg=0.0260976

========= L2 cache stats =========
L2_cache_bank[0]: Access = 1711351, Miss = 220826, Miss_rate = 0.129, Pending_hits = 20, Reservation_fails = 1718
L2_cache_bank[1]: Access = 1722064, Miss = 222271, Miss_rate = 0.129, Pending_hits = 8, Reservation_fails = 1277
L2_cache_bank[2]: Access = 1742328, Miss = 223266, Miss_rate = 0.128, Pending_hits = 9, Reservation_fails = 231
L2_cache_bank[3]: Access = 1726210, Miss = 225183, Miss_rate = 0.130, Pending_hits = 4, Reservation_fails = 28
L2_cache_bank[4]: Access = 1732175, Miss = 228310, Miss_rate = 0.132, Pending_hits = 14, Reservation_fails = 1203
L2_cache_bank[5]: Access = 1719284, Miss = 227293, Miss_rate = 0.132, Pending_hits = 2, Reservation_fails = 1356
L2_cache_bank[6]: Access = 1708421, Miss = 225962, Miss_rate = 0.132, Pending_hits = 11, Reservation_fails = 57
L2_cache_bank[7]: Access = 1709638, Miss = 227057, Miss_rate = 0.133, Pending_hits = 8, Reservation_fails = 36
L2_cache_bank[8]: Access = 1708281, Miss = 223703, Miss_rate = 0.131, Pending_hits = 4, Reservation_fails = 317
L2_cache_bank[9]: Access = 1708579, Miss = 226962, Miss_rate = 0.133, Pending_hits = 3, Reservation_fails = 274
L2_cache_bank[10]: Access = 1726656, Miss = 226307, Miss_rate = 0.131, Pending_hits = 7, Reservation_fails = 42
L2_cache_bank[11]: Access = 1665646, Miss = 223697, Miss_rate = 0.134, Pending_hits = 0, Reservation_fails = 46
L2_total_cache_accesses = 20580633
L2_total_cache_misses = 2700837
L2_total_cache_miss_rate = 0.1312
L2_total_cache_pending_hits = 90
L2_total_cache_reservation_fails = 6585
L2_total_cache_breakdown:
	L2_cache_stats_breakdown[GLOBAL_ACC_R][HIT] = 17879638
	L2_cache_stats_breakdown[GLOBAL_ACC_R][HIT_RESERVED] = 77
	L2_cache_stats_breakdown[GLOBAL_ACC_R][MISS] = 2699036
	L2_cache_stats_breakdown[GLOBAL_ACC_R][RESERVATION_FAIL] = 6171
	L2_cache_stats_breakdown[CONST_ACC_R][HIT] = 11
	L2_cache_stats_breakdown[CONST_ACC_R][HIT_RESERVED] = 3
	L2_cache_stats_breakdown[CONST_ACC_R][MISS] = 1
	L2_cache_stats_breakdown[CONST_ACC_R][RESERVATION_FAIL] = 95
	L2_cache_stats_breakdown[GLOBAL_ACC_W][MISS] = 1792
	L2_cache_stats_breakdown[INST_ACC_R][HIT] = 57
	L2_cache_stats_breakdown[INST_ACC_R][HIT_RESERVED] = 10
	L2_cache_stats_breakdown[INST_ACC_R][MISS] = 8
	L2_cache_stats_breakdown[INST_ACC_R][RESERVATION_FAIL] = 319
L2_cache_data_port_util = 0.359
L2_cache_fill_port_util = 0.054

icnt_total_pkts_mem_to_simt=102895967
icnt_total_pkts_simt_to_mem=20587801
LD_mem_lat_dist  0 0 0 0 0 0 0 0 0 0 0 0 0 0 0 0 0 0 0 0 0 0 0 0 0 0 0
ST_mem_lat_dist  0 0 0 0 0 0 0 0 0 0 0 0 0 0 0 0 0 0 0 0 0 0 0 0 0 0 0
----------------------------Interconnect-DETAILS--------------------------------
Class 0:
Packet latency average = 40.8247
	minimum = 6
	maximum = 642
Network latency average = 30.3996
	minimum = 6
	maximum = 562
Slowest packet = 20701802
Flit latency average = 19.327
	minimum = 6
	maximum = 562
Slowest flit = 100978039
Fragmentation average = 0.000150528
	minimum = 0
	maximum = 379
Injected packet rate average = 0.0920884
	minimum = 0.0771132 (at node 6)
	maximum = 0.105279 (at node 17)
Accepted packet rate average = 0.0920884
	minimum = 0.0771132 (at node 6)
	maximum = 0.105279 (at node 17)
Injected flit rate average = 0.276265
	minimum = 0.0771402 (at node 6)
	maximum = 0.526357 (at node 17)
Accepted flit rate average= 0.276265
	minimum = 0.100638 (at node 26)
	maximum = 0.447207 (at node 0)
Injected packet length average = 3
Accepted packet length average = 3
Total in-flight flits = 0 (0 measured)
====== Overall Traffic Statistics ======
====== Traffic class 0 ======
Packet latency average = 40.8519 (2 samples)
	minimum = 6 (2 samples)
	maximum = 650.5 (2 samples)
Network latency average = 30.3837 (2 samples)
	minimum = 6 (2 samples)
	maximum = 551.5 (2 samples)
Flit latency average = 19.3312 (2 samples)
	minimum = 6 (2 samples)
	maximum = 551.5 (2 samples)
Fragmentation average = 0.000189246 (2 samples)
	minimum = 0 (2 samples)
	maximum = 425.5 (2 samples)
Injected packet rate average = 0.0917912 (2 samples)
	minimum = 0.0764135 (2 samples)
	maximum = 0.104907 (2 samples)
Accepted packet rate average = 0.0917912 (2 samples)
	minimum = 0.0764135 (2 samples)
	maximum = 0.104907 (2 samples)
Injected flit rate average = 0.275374 (2 samples)
	minimum = 0.0764405 (2 samples)
	maximum = 0.524501 (2 samples)
Accepted flit rate average = 0.275374 (2 samples)
	minimum = 0.100327 (2 samples)
	maximum = 0.449011 (2 samples)
Injected packet size average = 3 (2 samples)
Accepted packet size average = 3 (2 samples)
Hops average = 1 (2 samples)
----------------------------END-of-Interconnect-DETAILS-------------------------


gpgpu_simulation_time = 0 days, 3 hrs, 0 min, 38 sec (10838 sec)
gpgpu_simulation_rate = 44462 (inst/sec)
gpgpu_simulation_rate = 1532 (cycle/sec)
GPGPU-Sim: synchronize waiting for inactive GPU simulation
GPGPU-Sim API: Stream Manager State
GPGPU-Sim: detected inactive GPU simulation thread
iterated 2 times

================= Centroid Coordinates =================
0: 1.23 613.61 527.61 0.00 0.00 0.01 0.00 0.00 0.00 0.00 0.03 0.01 0.00 0.00 0.00 8.15 11.06 0.00 0.00 0.00 0.00 0.99 0.01 0.22 139.44 193.37 0.83 0.02 0.06 0.01 0.00 0.00 0.00 0.00 1.00 1.23 613.61 527.61 0.00 0.00 0.01 0.00 0.00 0.00 0.00 0.03 0.01 0.00 0.00 0.00 8.15 11.06 0.00 0.00 0.00 0.00 0.99 0.01 0.22 139.44 193.37 0.83 0.02 0.06 0.01 0.00 0.00 0.00 0.00 1.23 613.61 527.61 0.00 0.00 0.01 0.00 0.00 0.00 0.00 0.03 0.01 0.00 0.00 0.00 8.15 11.06 0.00 0.00 0.00 0.00 0.99 0.01 0.22 139.44 193.37 0.83 0.02 0.06 0.01 0.00 0.00 0.00 0.00 1.00 1.23 613.61 527.61 0.00 0.00 0.01 0.00 0.00 0.00 0.00 0.03 0.01 0.00 0.00 0.00 8.15 11.06 0.00 0.00 0.00 0.00 0.99 0.01 0.22 139.44 193.37 0.83 0.02 0.06 0.01 0.00 0.00 0.00 0.00

1: 1.45 15177.44 214.67 0.00 0.00 0.01 0.00 0.00 0.00 0.00 0.00 0.02 0.01 0.02 0.00 4.59 5.07 0.00 0.01 0.00 0.00 0.98 0.03 0.25 129.85 98.10 0.52 0.05 0.20 0.01 0.00 0.00 0.00 0.00 1.00 1.45 15177.44 214.67 0.00 0.00 0.01 0.00 0.00 0.00 0.00 0.00 0.02 0.01 0.02 0.00 4.59 5.07 0.00 0.01 0.00 0.00 0.98 0.03 0.25 129.85 98.10 0.52 0.05 0.20 0.01 0.00 0.00 0.00 0.00 1.45 15177.44 214.67 0.00 0.00 0.01 0.00 0.00 0.00 0.00 0.00 0.02 0.01 0.02 0.00 4.59 5.07 0.00 0.01 0.00 0.00 0.98 0.03 0.25 129.85 98.10 0.52 0.05 0.20 0.01 0.00 0.00 0.00 0.00 1.00 1.45 15177.44 214.67 0.00 0.00 0.01 0.00 0.00 0.00 0.00 0.00 0.02 0.01 0.02 0.00 4.59 5.07 0.00 0.01 0.00 0.00 0.98 0.03 0.25 129.85 98.10 0.52 0.05 0.20 0.01 0.00 0.00 0.00 0.00

2: 3.74 600.16 40.36 0.01 0.00 0.00 0.00 0.00 0.00 0.00 0.00 0.00 0.00 0.00 0.00 338.62 287.90 0.24 0.24 0.03 0.03 0.75 0.04 0.03 240.64 180.98 0.72 0.05 0.58 0.00 0.24 0.24 0.03 0.03 1.00 3.74 600.16 40.36 0.01 0.00 0.00 0.00 0.00 0.00 0.00 0.00 0.00 0.00 0.00 0.00 338.62 287.90 0.24 0.24 0.03 0.03 0.75 0.04 0.03 240.64 180.98 0.72 0.05 0.58 0.00 0.24 0.24 0.03 0.03 3.74 600.16 40.36 0.01 0.00 0.00 0.00 0.00 0.00 0.00 0.00 0.00 0.00 0.00 0.00 338.62 287.90 0.24 0.24 0.03 0.03 0.75 0.04 0.03 240.64 180.98 0.72 0.05 0.58 0.00 0.24 0.24 0.03 0.03 1.00 3.74 600.16 40.36 0.01 0.00 0.00 0.00 0.00 0.00 0.00 0.00 0.00 0.00 0.00 0.00 338.62 287.90 0.24 0.24 0.03 0.03 0.75 0.04 0.03 240.64 180.98 0.72 0.05 0.58 0.00 0.24 0.24 0.03 0.03

3: 21.48 303.12 20528.08 0.00 0.00 0.03 0.00 0.16 0.00 0.00 0.17 0.01 0.00 0.00 0.00 7.59 11.10 0.00 0.01 0.00 0.00 1.00 0.00 0.13 130.51 246.12 0.99 0.00 0.06 0.02 0.00 0.00 0.00 0.00 1.00 21.48 303.12 20528.08 0.00 0.00 0.03 0.00 0.16 0.00 0.00 0.17 0.01 0.00 0.00 0.00 7.59 11.10 0.00 0.01 0.00 0.00 1.00 0.00 0.13 130.51 246.12 0.99 0.00 0.06 0.02 0.00 0.00 0.00 0.00 21.48 303.12 20528.08 0.00 0.00 0.03 0.00 0.16 0.00 0.00 0.17 0.01 0.00 0.00 0.00 7.59 11.10 0.00 0.01 0.00 0.00 1.00 0.00 0.13 130.51 246.12 0.99 0.00 0.06 0.02 0.00 0.00 0.00 0.00 1.00 21.48 303.12 20528.08 0.00 0.00 0.03 0.00 0.16 0.00 0.00 0.17 0.01 0.00 0.00 0.00 7.59 11.10 0.00 0.01 0.00 0.00 1.00 0.00 0.13 130.51 246.12 0.99 0.00 0.06 0.02 0.00 0.00 0.00 0.00

4: 0.31 264.14 2561.85 0.00 0.00 0.06 0.00 0.00 0.00 0.00 0.00 0.00 0.00 0.01 0.00 9.81 13.92 0.00 0.00 0.00 0.00 1.00 0.00 0.10 132.64 245.89 0.99 0.00 0.05 0.02 0.00 0.00 0.00 0.00 1.00 0.31 264.14 2561.85 0.00 0.00 0.06 0.00 0.00 0.00 0.00 0.00 0.00 0.00 0.01 0.00 9.81 13.92 0.00 0.00 0.00 0.00 1.00 0.00 0.10 132.64 245.89 0.99 0.00 0.05 0.02 0.00 0.00 0.00 0.00 0.31 264.14 2561.85 0.00 0.00 0.06 0.00 0.00 0.00 0.00 0.00 0.00 0.00 0.01 0.00 9.81 13.92 0.00 0.00 0.00 0.00 1.00 0.00 0.10 132.64 245.89 0.99 0.00 0.05 0.02 0.00 0.00 0.00 0.00 1.00 0.31 264.14 2561.85 0.00 0.00 0.06 0.00 0.00 0.00 0.00 0.00 0.00 0.00 0.01 0.00 9.81 13.92 0.00 0.00 0.00 0.00 1.00 0.00 0.10 132.64 245.89 0.99 0.00 0.05 0.02 0.00 0.00 0.00 0.00

Number of Iteration: 1
Time for I/O: 0.00000sec
Time for Entire Clustering: 0.00000sec
Root Mean Squared Error: 55443.000
