

        *** GPGPU-Sim Simulator Version 3.2.2  [build 0] ***


GPGPU-Sim PTX: simulation mode 0 (can change with PTX_SIM_MODE_FUNC environment variable:
               1=functional simulation only, 0=detailed performance simulator)
GPGPU-Sim: Configuration options:

-network_mode                           1 # Interconnection network mode
-inter_config_file   config_fermi_islip.icnt # Interconnection network config file
-gpgpu_ptx_use_cuobjdump                    1 # Use cuobjdump to extract ptx and sass from binaries
-gpgpu_experimental_lib_support                    0 # Try to extract code from cuda libraries [Broken because of unknown cudaGetExportTable]
-gpgpu_ptx_convert_to_ptxplus                    0 # Convert SASS (native ISA) to ptxplus and run ptxplus
-gpgpu_ptx_force_max_capability                   20 # Force maximum compute capability
-gpgpu_ptx_inst_debug_to_file                    0 # Dump executed instructions' debug information to file
-gpgpu_ptx_inst_debug_file       inst_debug.txt # Executed instructions' debug output file
-gpgpu_ptx_inst_debug_thread_uid                    1 # Thread UID for executed instructions' debug output
-gpgpu_simd_model                       1 # 1 = post-dominator
-gpgpu_shader_core_pipeline              1536:32 # shader core pipeline config, i.e., {<nthread>:<warpsize>}
-gpgpu_tex_cache:l1  4:128:24,L:R:m:N:L,F:128:4,128:2 # per-shader L1 texture cache  (READ-ONLY) config  {<nsets>:<bsize>:<assoc>,<rep>:<wr>:<alloc>:<wr_alloc>,<mshr>:<N>:<merge>,<mq>:<rf>}
-gpgpu_const_cache:l1 64:64:2,L:R:f:N:L,A:2:32,4 # per-shader L1 constant memory cache  (READ-ONLY) config  {<nsets>:<bsize>:<assoc>,<rep>:<wr>:<alloc>:<wr_alloc>,<mshr>:<N>:<merge>,<mq>} 
-gpgpu_cache:il1     4:128:4,L:R:f:N:L,A:2:32,4 # shader L1 instruction cache config  {<nsets>:<bsize>:<assoc>,<rep>:<wr>:<alloc>:<wr_alloc>,<mshr>:<N>:<merge>,<mq>} 
-gpgpu_cache:dl1     64:128:8,L:L:m:N:H,A:32:8,8 # per-shader L1 data cache config  {<nsets>:<bsize>:<assoc>,<rep>:<wr>:<alloc>:<wr_alloc>,<mshr>:<N>:<merge>,<mq> | none}
-gpgpu_cache:dl1PrefL1                 none # per-shader L1 data cache config  {<nsets>:<bsize>:<assoc>,<rep>:<wr>:<alloc>:<wr_alloc>,<mshr>:<N>:<merge>,<mq> | none}
-gpgpu_cache:dl1PreShared                 none # per-shader L1 data cache config  {<nsets>:<bsize>:<assoc>,<rep>:<wr>:<alloc>:<wr_alloc>,<mshr>:<N>:<merge>,<mq> | none}
-gmem_skip_L1D                          0 # global memory access skip L1D cache (implements -Xptxas -dlcm=cg, default=no skip)
-gpgpu_perfect_mem                      0 # enable perfect memory mode (no cache miss)
-n_regfile_gating_group                    4 # group of lanes that should be read/written together)
-gpgpu_clock_gated_reg_file                    0 # enable clock gated reg file for power calculations
-gpgpu_clock_gated_lanes                    0 # enable clock gated lanes for power calculations
-gpgpu_shader_registers                32768 # Number of registers per shader core. Limits number of concurrent CTAs. (default 8192)
-gpgpu_shader_cta                       8 # Maximum number of concurrent CTAs in shader (default 8)
-gpgpu_num_cta_barriers                   16 # Maximum number of named barriers per CTA (default 16)
-gpgpu_n_clusters                      15 # number of processing clusters
-gpgpu_n_cores_per_cluster                    1 # number of simd cores per cluster
-gpgpu_n_cluster_ejection_buffer_size                    8 # number of packets in ejection buffer
-gpgpu_n_ldst_response_buffer_size                    2 # number of response packets in ld/st unit ejection buffer
-gpgpu_shmem_size                   16384 # Size of shared memory per shader core (default 16kB)
-gpgpu_shmem_size                   49152 # Size of shared memory per shader core (default 16kB)
-gpgpu_shmem_size_PrefL1                16384 # Size of shared memory per shader core (default 16kB)
-gpgpu_shmem_size_PrefShared                16384 # Size of shared memory per shader core (default 16kB)
-gpgpu_shmem_num_banks                   32 # Number of banks in the shared memory in each shader core (default 16)
-gpgpu_shmem_limited_broadcast                    0 # Limit shared memory to do one broadcast per cycle (default on)
-gpgpu_shmem_warp_parts                    1 # Number of portions a warp is divided into for shared memory bank conflict check 
-gpgpu_warpdistro_shader                   -1 # Specify which shader core to collect the warp size distribution from
-gpgpu_warp_issue_shader                    0 # Specify which shader core to collect the warp issue distribution from
-gpgpu_local_mem_map                    1 # Mapping from local memory space address to simulated GPU physical address space (default = enabled)
-gpgpu_num_reg_banks                   16 # Number of register banks (default = 8)
-gpgpu_reg_bank_use_warp_id                    0 # Use warp ID in mapping registers to banks (default = off)
-gpgpu_operand_collector_num_units_sp                    6 # number of collector units (default = 4)
-gpgpu_operand_collector_num_units_sfu                    8 # number of collector units (default = 4)
-gpgpu_operand_collector_num_units_mem                    2 # number of collector units (default = 2)
-gpgpu_operand_collector_num_units_gen                    0 # number of collector units (default = 0)
-gpgpu_operand_collector_num_in_ports_sp                    2 # number of collector unit in ports (default = 1)
-gpgpu_operand_collector_num_in_ports_sfu                    1 # number of collector unit in ports (default = 1)
-gpgpu_operand_collector_num_in_ports_mem                    1 # number of collector unit in ports (default = 1)
-gpgpu_operand_collector_num_in_ports_gen                    0 # number of collector unit in ports (default = 0)
-gpgpu_operand_collector_num_out_ports_sp                    2 # number of collector unit in ports (default = 1)
-gpgpu_operand_collector_num_out_ports_sfu                    1 # number of collector unit in ports (default = 1)
-gpgpu_operand_collector_num_out_ports_mem                    1 # number of collector unit in ports (default = 1)
-gpgpu_operand_collector_num_out_ports_gen                    0 # number of collector unit in ports (default = 0)
-gpgpu_coalesce_arch                   13 # Coalescing arch (default = 13, anything else is off for now)
-gpgpu_num_sched_per_core                    2 # Number of warp schedulers per core
-gpgpu_max_insn_issue_per_warp                    1 # Max number of instructions that can be issued per warp in one cycle by scheduler
-gpgpu_simt_core_sim_order                    1 # Select the simulation order of cores in a cluster (0=Fix, 1=Round-Robin)
-gpgpu_pipeline_widths        2,1,1,2,1,1,2 # Pipeline widths ID_OC_SP,ID_OC_SFU,ID_OC_MEM,OC_EX_SP,OC_EX_SFU,OC_EX_MEM,EX_WB
-gpgpu_num_sp_units                     2 # Number of SP units (default=1)
-gpgpu_num_sfu_units                    1 # Number of SF units (default=1)
-gpgpu_num_mem_units                    1 # Number if ldst units (default=1) WARNING: not hooked up to anything
-gpgpu_scheduler                      gto # Scheduler configuration: < lrr | gto | two_level_active > If two_level_active:<num_active_warps>:<inner_prioritization>:<outer_prioritization>For complete list of prioritization values see shader.h enum scheduler_prioritization_typeDefault: gto
-gpgpu_dram_scheduler                    1 # 0 = fifo, 1 = FR-FCFS (defaul)
-gpgpu_dram_partition_queues              8:8:8:8 # i2$:$2d:d2$:$2i
-l2_ideal                               0 # Use a ideal L2 cache that always hit
-gpgpu_cache:dl2     64:128:8,L:B:m:W:L,A:32:4,4:0,32 # unified banked L2 data cache config  {<nsets>:<bsize>:<assoc>,<rep>:<wr>:<alloc>:<wr_alloc>,<mshr>:<N>:<merge>,<mq>}
-gpgpu_cache:dl2_texture_only                    0 # L2 cache used for texture only
-gpgpu_n_mem                            6 # number of memory modules (e.g. memory controllers) in gpu
-gpgpu_n_sub_partition_per_mchannel                    2 # number of memory subpartition in each memory module
-gpgpu_n_mem_per_ctrlr                    2 # number of memory chips per memory controller
-gpgpu_memlatency_stat                   14 # track and display latency statistics 0x2 enables MC, 0x4 enables queue logs
-gpgpu_frfcfs_dram_sched_queue_size                   16 # 0 = unlimited (default); # entries per chip
-gpgpu_dram_return_queue_size                  116 # 0 = unlimited (default); # entries per chip
-gpgpu_dram_buswidth                    4 # default = 4 bytes (8 bytes per cycle at DDR)
-gpgpu_dram_burst_length                    8 # Burst length of each DRAM request (default = 4 data bus cycle)
-dram_data_command_freq_ratio                    4 # Frequency ratio between DRAM data bus and command bus (default = 2 times, i.e. DDR)
-gpgpu_dram_timing_opt nbk=16:CCD=2:RRD=6:RCD=12:RAS=28:RP=12:RC=40: CL=12:WL=4:CDLR=5:WR=12:nbkgrp=4:CCDL=3:RTPL=2 # DRAM timing parameters = {nbk:tCCD:tRRD:tRCD:tRAS:tRP:tRC:CL:WL:tCDLR:tWR:nbkgrp:tCCDL:tRTPL}
-rop_latency                          120 # ROP queue latency (default 85)
-dram_latency                         100 # DRAM latency (default 30)
-gpgpu_mem_addr_mapping dramid@8;00000000.00000000.00000000.00000000.0000RRRR.RRRRRRRR.BBBCCCCB.CCSSSSSS # mapping memory address to dram model {dramid@<start bit>;<memory address map>}
-gpgpu_mem_addr_test                    0 # run sweep test to check address mapping for aliased address
-gpgpu_mem_address_mask                    1 # 0 = old addressing mask, 1 = new addressing mask, 2 = new add. mask + flipped bank sel and chip sel bits
-gpuwattch_xml_file  gpuwattch_gtx480.xml # GPUWattch XML file
-power_simulation_enabled                    1 # Turn on power simulator (1=On, 0=Off)
-power_per_cycle_dump                    0 # Dump detailed power output each cycle
-power_trace_enabled                    0 # produce a file for the power trace (1=On, 0=Off)
-power_trace_zlevel                     6 # Compression level of the power trace output log (0=no comp, 9=highest)
-steady_power_levels_enabled                    0 # produce a file for the steady power levels (1=On, 0=Off)
-steady_state_definition                  8:4 # allowed deviation:number of samples
-gpgpu_max_cycle                        0 # terminates gpu simulation early (0 = no limit)
-gpgpu_max_insn                         0 # terminates gpu simulation early (0 = no limit)
-gpgpu_max_cta                          0 # terminates gpu simulation early (0 = no limit)
-gpgpu_runtime_stat                   500 # display runtime statistics such as dram utilization {<freq>:<flag>}
-liveness_message_freq                    1 # Minimum number of seconds between simulation liveness messages (0 = always print)
-gpgpu_flush_l1_cache                    0 # Flush L1 cache at the end of each kernel call
-gpgpu_flush_l2_cache                    0 # Flush L2 cache at the end of each kernel call
-gpgpu_deadlock_detect                    1 # Stop the simulation at deadlock (1=on (default), 0=off)
-gpgpu_ptx_instruction_classification                    0 # if enabled will classify ptx instruction types per kernel (Max 255 kernels now)
-gpgpu_ptx_sim_mode                     0 # Select between Performance (default) or Functional simulation (1)
-gpgpu_clock_domains 700.0:700.0:700.0:924.0 # Clock Domain Frequencies in MhZ {<Core Clock>:<ICNT Clock>:<L2 Clock>:<DRAM Clock>}
-gpgpu_max_concurrent_kernel                    8 # maximum kernels that can run concurrently on GPU
-gpgpu_cflog_interval                    0 # Interval between each snapshot in control flow logger
-visualizer_enabled                     0 # Turn on visualizer output (1=On, 0=Off)
-visualizer_outputfile                 NULL # Specifies the output log file for visualizer
-visualizer_zlevel                      6 # Compression level of the visualizer output log (0=no comp, 9=highest)
-trace_enabled                          0 # Turn on traces
-trace_components                    none # comma seperated list of traces to enable. Complete list found in trace_streams.tup. Default none
-trace_sampling_core                    0 # The core which is printed using CORE_DPRINTF. Default 0
-trace_sampling_memory_partition                   -1 # The memory partition which is printed using MEMPART_DPRINTF. Default -1 (i.e. all)
-enable_ptx_file_line_stats                    1 # Turn on PTX source line statistic profiling. (1 = On)
-ptx_line_stats_filename gpgpu_inst_stats.txt # Output file for PTX source line statistics.
-save_embedded_ptx                      0 # saves ptx files embedded in binary as <n>.ptx
-keep                                   0 # keep intermediate files created by GPGPU-Sim when interfacing with external programs
-gpgpu_ptx_save_converted_ptxplus                    0 # Saved converted ptxplus to a file
-ptx_opcode_latency_int         4,13,4,5,145 # Opcode latencies for integers <ADD,MAX,MUL,MAD,DIV>Default 1,1,19,25,145
-ptx_opcode_latency_fp          4,13,4,5,39 # Opcode latencies for single precision floating points <ADD,MAX,MUL,MAD,DIV>Default 1,1,1,1,30
-ptx_opcode_latency_dp         8,19,8,8,330 # Opcode latencies for double precision floating points <ADD,MAX,MUL,MAD,DIV>Default 8,8,8,8,335
-ptx_opcode_initiation_int            1,2,2,1,8 # Opcode initiation intervals for integers <ADD,MAX,MUL,MAD,DIV>Default 1,1,4,4,32
-ptx_opcode_initiation_fp            1,2,1,1,4 # Opcode initiation intervals for single precision floating points <ADD,MAX,MUL,MAD,DIV>Default 1,1,1,1,5
-ptx_opcode_initiation_dp         8,16,8,8,130 # Opcode initiation intervals for double precision floating points <ADD,MAX,MUL,MAD,DIV>Default 8,8,8,8,130
DRAM Timing Options:
nbk                                    16 # number of banks
CCD                                     2 # column to column delay
RRD                                     6 # minimal delay between activation of rows in different banks
RCD                                    12 # row to column delay
RAS                                    28 # time needed to activate row
RP                                     12 # time needed to precharge (deactivate) row
RC                                     40 # row cycle time
CDLR                                    5 # switching from write to read (changes tWTR)
WR                                     12 # last data-in to row precharge
CL                                     12 # CAS latency
WL                                      4 # Write latency
nbkgrp                                  4 # number of bank groups
CCDL                                    3 # column to column delay between accesses to different bank groups
RTPL                                    2 # read to precharge delay between accesses to different bank groups
Total number of memory sub partition = 12
addr_dec_mask[CHIP]  = 0000000000000000 	high:64 low:0
addr_dec_mask[BK]    = 000000000000e100 	high:16 low:8
addr_dec_mask[ROW]   = 000000000fff0000 	high:28 low:16
addr_dec_mask[COL]   = 0000000000001eff 	high:13 low:0
addr_dec_mask[BURST] = 000000000000003f 	high:6 low:0
sub_partition_id_mask = 0000000000000100
GPGPU-Sim uArch: clock freqs: 700000000.000000:700000000.000000:700000000.000000:924000000.000000
GPGPU-Sim uArch: clock periods: 0.00000000142857142857:0.00000000142857142857:0.00000000142857142857:0.00000000108225108225
*** Initializing Memory Statistics ***
GPGPU-Sim uArch: interconnect node map (shaderID+MemID to icntID)
GPGPU-Sim uArch: Memory nodes ID start from index: 15
GPGPU-Sim uArch:    0   1   2   3   4
GPGPU-Sim uArch:    5   6   7   8   9
GPGPU-Sim uArch:   10  11  12  13  14
GPGPU-Sim uArch:   15  16  17  18  19
GPGPU-Sim uArch:   20  21  22  23  24
GPGPU-Sim uArch:   25  26
GPGPU-Sim uArch: interconnect node reverse map (icntID to shaderID+MemID)
GPGPU-Sim uArch: Memory nodes start from ID: 15
GPGPU-Sim uArch:    0   1   2   3   4
GPGPU-Sim uArch:    5   6   7   8   9
GPGPU-Sim uArch:   10  11  12  13  14
GPGPU-Sim uArch:   15  16  17  18  19
GPGPU-Sim uArch:   20  21  22  23  24
GPGPU-Sim uArch:   25  26
575cc336cf9f8f0a73559869c93333de  /home/scratch/adwait/applications/benchmarks/CUDA/BFS2/gpgpu_ptx_sim__BFS2
GPGPU-Sim uArch: performance model initialization complete.
GPGPU-Sim PTX: __cudaRegisterFatBinary, fat_cubin_handle = 1, filename=bfs.cu
self exe links to: /home/scratch/adwait/applications/benchmarks/CUDA/BFS2/gpgpu_ptx_sim__BFS2
Running md5sum using "md5sum /home/scratch/adwait/applications/benchmarks/CUDA/BFS2/gpgpu_ptx_sim__BFS2 "
Running cuobjdump using "$CUDA_INSTALL_PATH/bin/cuobjdump -ptx -elf -sass /home/scratch/adwait/applications/benchmarks/CUDA/BFS2/gpgpu_ptx_sim__BFS2 > _cuobjdump_complete_output_4kRxPq"
Parsing file _cuobjdump_complete_output_4kRxPq
######### cuobjdump parser ########
## Adding new section ELF
Adding arch: sm_20
Adding identifier: bfs.cu
## Adding new section PTX
Adding ptx filename: _cuobjdump_1.ptx
Adding arch: sm_20
Adding identifier: bfs.cu
Done parsing!!!
GPGPU-Sim PTX: __cudaRegisterFunction _Z7Kernel2PbS_S_S_i : hostFun 0x0x4017d8, fat_cubin_handle = 1
GPGPU-Sim PTX: instruction assembly for function '_Z6KernelP4NodePiPbS2_S2_S1_i'...   done.
GPGPU-Sim PTX: finding reconvergence points for '_Z6KernelP4NodePiPbS2_S2_S1_i'...
GPGPU-Sim PTX: Finding dominators for '_Z6KernelP4NodePiPbS2_S2_S1_i'...
GPGPU-Sim PTX: Finding immediate dominators for '_Z6KernelP4NodePiPbS2_S2_S1_i'...
GPGPU-Sim PTX: Finding postdominators for '_Z6KernelP4NodePiPbS2_S2_S1_i'...
GPGPU-Sim PTX: Finding immediate postdominators for '_Z6KernelP4NodePiPbS2_S2_S1_i'...
GPGPU-Sim PTX: pre-decoding instructions for '_Z6KernelP4NodePiPbS2_S2_S1_i'...
GPGPU-Sim PTX: reconvergence points for _Z6KernelP4NodePiPbS2_S2_S1_i...
GPGPU-Sim PTX:  1 (potential) branch divergence @  PC=0x030 (_1.ptx:73) @%p1 bra $Lt_0_5122;
GPGPU-Sim PTX:    immediate post dominator      @  PC=0x1c0 (_1.ptx:135) exit;
GPGPU-Sim PTX:  2 (potential) branch divergence @  PC=0x068 (_1.ptx:80) @%p2 bra $Lt_0_5122;
GPGPU-Sim PTX:    immediate post dominator      @  PC=0x1c0 (_1.ptx:135) exit;
GPGPU-Sim PTX:  3 (potential) branch divergence @  PC=0x0c0 (_1.ptx:93) @%p3 bra $Lt_0_5122;
GPGPU-Sim PTX:    immediate post dominator      @  PC=0x1c0 (_1.ptx:135) exit;
GPGPU-Sim PTX:  4 (potential) branch divergence @  PC=0x120 (_1.ptx:108) @%p4 bra $Lt_0_4354;
GPGPU-Sim PTX:    immediate post dominator      @  PC=0x1a0 (_1.ptx:128) add.s32 %r10, %r10, 1;
GPGPU-Sim PTX:  5 (potential) branch divergence @  PC=0x1b8 (_1.ptx:131) @%p5 bra $Lt_0_4098;
GPGPU-Sim PTX:    immediate post dominator      @  PC=0x1c0 (_1.ptx:135) exit;
GPGPU-Sim PTX: ... end of reconvergence points for _Z6KernelP4NodePiPbS2_S2_S1_i
GPGPU-Sim PTX: ... done pre-decoding instructions for '_Z6KernelP4NodePiPbS2_S2_S1_i'.
GPGPU-Sim PTX: instruction assembly for function '_Z7Kernel2PbS_S_S_i'...   done.
GPGPU-Sim PTX: finding reconvergence points for '_Z7Kernel2PbS_S_S_i'...
GPGPU-Sim PTX: Finding dominators for '_Z7Kernel2PbS_S_S_i'...
GPGPU-Sim PTX: Finding immediate dominators for '_Z7Kernel2PbS_S_S_i'...
GPGPU-Sim PTX: Finding postdominators for '_Z7Kernel2PbS_S_S_i'...
GPGPU-Sim PTX: Finding immediate postdominators for '_Z7Kernel2PbS_S_S_i'...
GPGPU-Sim PTX: pre-decoding instructions for '_Z7Kernel2PbS_S_S_i'...
GPGPU-Sim PTX: reconvergence points for _Z7Kernel2PbS_S_S_i...
GPGPU-Sim PTX:  1 (potential) branch divergence @  PC=0x1f8 (_1.ptx:157) @%p1 bra $Lt_1_1794;
GPGPU-Sim PTX:    immediate post dominator      @  PC=0x2a0 (_1.ptx:185) exit;
GPGPU-Sim PTX:  2 (potential) branch divergence @  PC=0x230 (_1.ptx:164) @%p2 bra $Lt_1_1794;
GPGPU-Sim PTX:    immediate post dominator      @  PC=0x2a0 (_1.ptx:185) exit;
GPGPU-Sim PTX: ... end of reconvergence points for _Z7Kernel2PbS_S_S_i
GPGPU-Sim PTX: ... done pre-decoding instructions for '_Z7Kernel2PbS_S_S_i'.
GPGPU-Sim PTX: finished parsing EMBEDDED .ptx file _1.ptx
Adding _cuobjdump_1.ptx with cubin handle 1
GPGPU-Sim PTX: extracting embedded .ptx to temporary file "_ptx_B5DgJc"
Running: cat _ptx_B5DgJc | sed 's/.version 1.5/.version 1.4/' | sed 's/, texmode_independent//' | sed 's/\(\.extern \.const\[1\] .b8 \w\+\)\[\]/\1\[1\]/' | sed 's/const\[.\]/const\[0\]/g' > _ptx2_doaXDY
GPGPU-Sim PTX: generating ptxinfo using "$CUDA_INSTALL_PATH/bin/ptxas --gpu-name=sm_20 -v _ptx2_doaXDY --output-file  /dev/null 2> _ptx_B5DgJcinfo"
GPGPU-Sim PTX: Kernel '_Z7Kernel2PbS_S_S_i' : regs=12, lmem=0, smem=0, cmem=68
GPGPU-Sim PTX: Kernel '_Z6KernelP4NodePiPbS2_S2_S1_i' : regs=15, lmem=0, smem=0, cmem=84
GPGPU-Sim PTX: removing ptxinfo using "rm -f _ptx_B5DgJc _ptx2_doaXDY _ptx_B5DgJcinfo"
GPGPU-Sim PTX: loading globals with explicit initializers... 
GPGPU-Sim PTX: finished loading globals (0 bytes total).
GPGPU-Sim PTX: loading constants with explicit initializers...  done.
GPGPU-Sim PTX: __cudaRegisterFunction _Z6KernelP4NodePiPbS2_S2_S1_i : hostFun 0x0x40169c, fat_cubin_handle = 1
Input file: ./data/graph32k500kedges_SV.txt
Reading File
Read File
Copied Everything to GPU memory

GPGPU-Sim PTX: cudaLaunch for 0x0x40169c (mode=performance simulation) on stream 0
GPGPU-Sim PTX: pushing kernel '_Z6KernelP4NodePiPbS2_S2_S1_i' to stream 0, gridDim= (63,1,1) blockDim = (512,1,1) 
kernel '_Z6KernelP4NodePiPbS2_S2_S1_i' transfer to GPU hardware scheduler
GPGPU-Sim uArch: Shader 1 bind to kernel 1 '_Z6KernelP4NodePiPbS2_S2_S1_i'
GPGPU-Sim uArch: CTA/core = 3, limited by: threads
GPGPU-Sim uArch: core:  1, cta: 0 initialized @(1,0)
GPGPU-Sim uArch: Shader 2 bind to kernel 1 '_Z6KernelP4NodePiPbS2_S2_S1_i'
GPGPU-Sim uArch: core:  2, cta: 0 initialized @(1,0)
GPGPU-Sim uArch: Shader 3 bind to kernel 1 '_Z6KernelP4NodePiPbS2_S2_S1_i'
GPGPU-Sim uArch: core:  3, cta: 0 initialized @(1,0)
GPGPU-Sim uArch: Shader 4 bind to kernel 1 '_Z6KernelP4NodePiPbS2_S2_S1_i'
GPGPU-Sim uArch: core:  4, cta: 0 initialized @(1,0)
GPGPU-Sim uArch: Shader 5 bind to kernel 1 '_Z6KernelP4NodePiPbS2_S2_S1_i'
GPGPU-Sim uArch: core:  5, cta: 0 initialized @(1,0)
GPGPU-Sim uArch: Shader 6 bind to kernel 1 '_Z6KernelP4NodePiPbS2_S2_S1_i'
GPGPU-Sim uArch: core:  6, cta: 0 initialized @(1,0)
GPGPU-Sim uArch: Shader 7 bind to kernel 1 '_Z6KernelP4NodePiPbS2_S2_S1_i'
GPGPU-Sim uArch: core:  7, cta: 0 initialized @(1,0)
GPGPU-Sim uArch: Shader 8 bind to kernel 1 '_Z6KernelP4NodePiPbS2_S2_S1_i'
GPGPU-Sim uArch: core:  8, cta: 0 initialized @(1,0)
GPGPU-Sim uArch: Shader 9 bind to kernel 1 '_Z6KernelP4NodePiPbS2_S2_S1_i'
GPGPU-Sim uArch: core:  9, cta: 0 initialized @(1,0)
GPGPU-Sim uArch: Shader 10 bind to kernel 1 '_Z6KernelP4NodePiPbS2_S2_S1_i'
GPGPU-Sim uArch: core: 10, cta: 0 initialized @(1,0)
GPGPU-Sim uArch: Shader 11 bind to kernel 1 '_Z6KernelP4NodePiPbS2_S2_S1_i'
GPGPU-Sim uArch: core: 11, cta: 0 initialized @(1,0)
GPGPU-Sim uArch: Shader 12 bind to kernel 1 '_Z6KernelP4NodePiPbS2_S2_S1_i'
GPGPU-Sim uArch: core: 12, cta: 0 initialized @(1,0)
GPGPU-Sim uArch: Shader 13 bind to kernel 1 '_Z6KernelP4NodePiPbS2_S2_S1_i'
GPGPU-Sim uArch: core: 13, cta: 0 initialized @(1,0)
GPGPU-Sim uArch: Shader 14 bind to kernel 1 '_Z6KernelP4NodePiPbS2_S2_S1_i'
GPGPU-Sim uArch: core: 14, cta: 0 initialized @(1,0)
GPGPU-Sim uArch: Shader 0 bind to kernel 1 '_Z6KernelP4NodePiPbS2_S2_S1_i'
GPGPU-Sim uArch: core:  0, cta: 0 initialized @(1,0)
GPGPU-Sim uArch: core:  1, cta: 1 initialized @(2,0)
GPGPU-Sim uArch: core:  2, cta: 1 initialized @(2,0)
GPGPU-Sim uArch: core:  3, cta: 1 initialized @(2,0)
GPGPU-Sim uArch: core:  4, cta: 1 initialized @(2,0)
GPGPU-Sim uArch: core:  5, cta: 1 initialized @(2,0)
GPGPU-Sim uArch: core:  6, cta: 1 initialized @(2,0)
GPGPU-Sim uArch: core:  7, cta: 1 initialized @(2,0)
GPGPU-Sim uArch: core:  8, cta: 1 initialized @(2,0)
GPGPU-Sim uArch: core:  9, cta: 1 initialized @(2,0)
GPGPU-Sim uArch: core: 10, cta: 1 initialized @(2,0)
GPGPU-Sim uArch: core: 11, cta: 1 initialized @(2,0)
GPGPU-Sim uArch: core: 12, cta: 1 initialized @(2,0)
GPGPU-Sim uArch: core: 13, cta: 1 initialized @(2,0)
GPGPU-Sim uArch: core: 14, cta: 1 initialized @(2,0)
GPGPU-Sim uArch: core:  0, cta: 1 initialized @(2,0)
GPGPU-Sim uArch: core:  1, cta: 2 initialized @(3,0)
GPGPU-Sim uArch: core:  2, cta: 2 initialized @(3,0)
GPGPU-Sim uArch: core:  3, cta: 2 initialized @(3,0)
GPGPU-Sim uArch: core:  4, cta: 2 initialized @(3,0)
GPGPU-Sim uArch: core:  5, cta: 2 initialized @(3,0)
GPGPU-Sim uArch: core:  6, cta: 2 initialized @(3,0)
GPGPU-Sim uArch: core:  7, cta: 2 initialized @(3,0)
GPGPU-Sim uArch: core:  8, cta: 2 initialized @(3,0)
GPGPU-Sim uArch: core:  9, cta: 2 initialized @(3,0)
GPGPU-Sim uArch: core: 10, cta: 2 initialized @(3,0)
GPGPU-Sim uArch: core: 11, cta: 2 initialized @(3,0)
GPGPU-Sim uArch: core: 12, cta: 2 initialized @(3,0)
GPGPU-Sim uArch: core: 13, cta: 2 initialized @(3,0)
GPGPU-Sim uArch: core: 14, cta: 2 initialized @(3,0)
GPGPU-Sim uArch: core:  0, cta: 2 initialized @(3,0)
GPGPU-Sim PTX: 100000 instructions simulated : ctaid=(22,0,0) tid=(447,0,0)
GPGPU-Sim uArch: cycles simulated: 500  inst.: 92000 (ipc=184.0) sim_rate=92000 (inst/sec) elapsed = 0:0:00:01 / Wed Apr 17 12:22:53 2019
GPGPU-Sim PTX: 200000 instructions simulated : ctaid=(26,0,0) tid=(415,0,0)
GPGPU-Sim PTX: 300000 instructions simulated : ctaid=(16,0,0) tid=(381,0,0)
GPGPU-Sim uArch: Shader 0 finished CTA #0 (1275,0), 2 CTAs running
GPGPU-Sim uArch: core:  0, cta: 0 initialized @(1276,0)
GPGPU-Sim uArch: Shader 3 finished CTA #0 (1277,0), 2 CTAs running
GPGPU-Sim uArch: core:  3, cta: 0 initialized @(1278,0)
GPGPU-Sim uArch: Shader 3 finished CTA #2 (1285,0), 2 CTAs running
GPGPU-Sim uArch: core:  3, cta: 2 initialized @(1286,0)
GPGPU-Sim uArch: Shader 4 finished CTA #0 (1291,0), 2 CTAs running
GPGPU-Sim uArch: core:  4, cta: 0 initialized @(1292,0)
GPGPU-Sim uArch: Shader 0 finished CTA #1 (1295,0), 2 CTAs running
GPGPU-Sim uArch: Shader 0 finished CTA #2 (1295,0), 1 CTAs running
GPGPU-Sim uArch: core:  0, cta: 1 initialized @(1296,0)
GPGPU-Sim uArch: core:  0, cta: 2 initialized @(1297,0)
GPGPU-Sim uArch: Shader 2 finished CTA #0 (1297,0), 2 CTAs running
GPGPU-Sim uArch: Shader 2 finished CTA #1 (1297,0), 1 CTAs running
GPGPU-Sim uArch: core:  2, cta: 0 initialized @(1298,0)
GPGPU-Sim uArch: core:  2, cta: 1 initialized @(1299,0)
GPGPU-Sim uArch: Shader 3 finished CTA #1 (1301,0), 2 CTAs running
GPGPU-Sim uArch: core:  3, cta: 1 initialized @(1302,0)
GPGPU-Sim uArch: Shader 5 finished CTA #0 (1303,0), 2 CTAs running
GPGPU-Sim uArch: core:  5, cta: 0 initialized @(1304,0)
GPGPU-Sim uArch: Shader 4 finished CTA #1 (1308,0), 2 CTAs running
GPGPU-Sim uArch: Shader 4 finished CTA #2 (1308,0), 1 CTAs running
GPGPU-Sim uArch: core:  4, cta: 1 initialized @(1309,0)
GPGPU-Sim uArch: Shader 1 finished CTA #1 (1309,0), 2 CTAs running
GPGPU-Sim uArch: core:  1, cta: 1 initialized @(1310,0)
GPGPU-Sim uArch: core:  4, cta: 2 initialized @(1310,0)
GPGPU-Sim uArch: Shader 6 finished CTA #0 (1315,0), 2 CTAs running
GPGPU-Sim uArch: core:  6, cta: 0 initialized @(1316,0)
GPGPU-Sim uArch: Shader 5 finished CTA #1 (1320,0), 2 CTAs running
GPGPU-Sim uArch: Shader 5 finished CTA #2 (1320,0), 1 CTAs running
GPGPU-Sim uArch: core:  5, cta: 1 initialized @(1321,0)
GPGPU-Sim uArch: Shader 11 finished CTA #0 (1321,0), 2 CTAs running
GPGPU-Sim uArch: Shader 11 finished CTA #1 (1321,0), 1 CTAs running
GPGPU-Sim uArch: core: 11, cta: 0 initialized @(1322,0)
GPGPU-Sim uArch: core:  5, cta: 2 initialized @(1322,0)
GPGPU-Sim uArch: core: 11, cta: 1 initialized @(1323,0)
GPGPU-Sim uArch: Shader 1 finished CTA #2 (1326,0), 2 CTAs running
GPGPU-Sim uArch: Shader 7 finished CTA #2 (1327,0), 2 CTAs running
GPGPU-Sim uArch: Shader 7 finished CTA #0 (1327,0), 1 CTAs running
GPGPU-Sim uArch: Shader 2 finished CTA #2 (1330,0), 2 CTAs running
GPGPU-Sim uArch: Shader 6 finished CTA #1 (1332,0), 2 CTAs running
GPGPU-Sim uArch: Shader 6 finished CTA #2 (1332,0), 1 CTAs running
GPGPU-Sim uArch: Shader 8 finished CTA #0 (1333,0), 2 CTAs running
GPGPU-Sim uArch: Shader 7 finished CTA #1 (1334,0), 0 CTAs running
GPGPU-Sim uArch: Shader 7 empty (release kernel 1 '_Z6KernelP4NodePiPbS2_S2_S1_i').
GPGPU-Sim uArch: Shader 8 finished CTA #1 (1336,0), 1 CTAs running
GPGPU-Sim uArch: Shader 9 finished CTA #0 (1339,0), 2 CTAs running
GPGPU-Sim uArch: Shader 9 finished CTA #1 (1339,0), 1 CTAs running
GPGPU-Sim uArch: Shader 8 finished CTA #2 (1340,0), 0 CTAs running
GPGPU-Sim uArch: Shader 8 empty (release kernel 1 '_Z6KernelP4NodePiPbS2_S2_S1_i').
GPGPU-Sim uArch: Shader 10 finished CTA #0 (1345,0), 2 CTAs running
GPGPU-Sim uArch: Shader 9 finished CTA #2 (1346,0), 0 CTAs running
GPGPU-Sim uArch: Shader 9 empty (release kernel 1 '_Z6KernelP4NodePiPbS2_S2_S1_i').
GPGPU-Sim uArch: Shader 10 finished CTA #1 (1348,0), 1 CTAs running
GPGPU-Sim uArch: Shader 12 finished CTA #0 (1351,0), 2 CTAs running
GPGPU-Sim uArch: Shader 10 finished CTA #2 (1352,0), 0 CTAs running
GPGPU-Sim uArch: Shader 10 empty (release kernel 1 '_Z6KernelP4NodePiPbS2_S2_S1_i').
GPGPU-Sim uArch: Shader 12 finished CTA #1 (1352,0), 1 CTAs running
GPGPU-Sim uArch: Shader 11 finished CTA #2 (1354,0), 2 CTAs running
GPGPU-Sim uArch: Shader 13 finished CTA #0 (1357,0), 2 CTAs running
GPGPU-Sim uArch: Shader 12 finished CTA #2 (1358,0), 0 CTAs running
GPGPU-Sim uArch: Shader 12 empty (release kernel 1 '_Z6KernelP4NodePiPbS2_S2_S1_i').
GPGPU-Sim uArch: Shader 13 finished CTA #1 (1360,0), 1 CTAs running
GPGPU-Sim uArch: Shader 14 finished CTA #0 (1363,0), 2 CTAs running
GPGPU-Sim uArch: Shader 14 finished CTA #1 (1363,0), 1 CTAs running
GPGPU-Sim uArch: Shader 13 finished CTA #2 (1364,0), 0 CTAs running
GPGPU-Sim uArch: Shader 13 empty (release kernel 1 '_Z6KernelP4NodePiPbS2_S2_S1_i').
GPGPU-Sim uArch: Shader 14 finished CTA #2 (1370,0), 0 CTAs running
GPGPU-Sim uArch: Shader 14 empty (release kernel 1 '_Z6KernelP4NodePiPbS2_S2_S1_i').
GPGPU-Sim PTX: 400000 instructions simulated : ctaid=(55,0,0) tid=(89,0,0)
GPGPU-Sim uArch: cycles simulated: 1500  inst.: 393732 (ipc=262.5) sim_rate=196866 (inst/sec) elapsed = 0:0:00:02 / Wed Apr 17 12:22:54 2019
GPGPU-Sim uArch: Shader 1 finished CTA #1 (1711,0), 1 CTAs running
GPGPU-Sim uArch: Shader 6 finished CTA #0 (1721,0), 0 CTAs running
GPGPU-Sim uArch: Shader 6 empty (release kernel 1 '_Z6KernelP4NodePiPbS2_S2_S1_i').
GPGPU-Sim uArch: Shader 2 finished CTA #0 (1761,0), 1 CTAs running
GPGPU-Sim uArch: Shader 0 finished CTA #0 (1773,0), 2 CTAs running
GPGPU-Sim uArch: Shader 11 finished CTA #0 (1791,0), 1 CTAs running
GPGPU-Sim uArch: Shader 3 finished CTA #0 (1798,0), 2 CTAs running
GPGPU-Sim uArch: Shader 11 finished CTA #1 (1798,0), 0 CTAs running
GPGPU-Sim uArch: Shader 11 empty (release kernel 1 '_Z6KernelP4NodePiPbS2_S2_S1_i').
GPGPU-Sim uArch: Shader 4 finished CTA #0 (1800,0), 2 CTAs running
GPGPU-Sim uArch: Shader 2 finished CTA #1 (1807,0), 0 CTAs running
GPGPU-Sim uArch: Shader 2 empty (release kernel 1 '_Z6KernelP4NodePiPbS2_S2_S1_i').
GPGPU-Sim uArch: Shader 5 finished CTA #0 (1812,0), 2 CTAs running
GPGPU-Sim uArch: Shader 0 finished CTA #1 (1838,0), 1 CTAs running
GPGPU-Sim uArch: Shader 3 finished CTA #2 (1844,0), 1 CTAs running
GPGPU-Sim uArch: Shader 4 finished CTA #1 (1854,0), 1 CTAs running
GPGPU-Sim uArch: Shader 5 finished CTA #1 (1865,0), 1 CTAs running
GPGPU-Sim uArch: Shader 0 finished CTA #2 (1898,0), 0 CTAs running
GPGPU-Sim uArch: Shader 0 empty (release kernel 1 '_Z6KernelP4NodePiPbS2_S2_S1_i').
GPGPU-Sim uArch: Shader 3 finished CTA #1 (1907,0), 0 CTAs running
GPGPU-Sim uArch: Shader 3 empty (release kernel 1 '_Z6KernelP4NodePiPbS2_S2_S1_i').
GPGPU-Sim uArch: Shader 4 finished CTA #2 (1910,0), 0 CTAs running
GPGPU-Sim uArch: Shader 4 empty (release kernel 1 '_Z6KernelP4NodePiPbS2_S2_S1_i').
GPGPU-Sim uArch: Shader 5 finished CTA #2 (1924,0), 0 CTAs running
GPGPU-Sim uArch: Shader 5 empty (release kernel 1 '_Z6KernelP4NodePiPbS2_S2_S1_i').
GPGPU-Sim uArch: Shader 1 finished CTA #0 (8375,0), 0 CTAs running
GPGPU-Sim uArch: Shader 1 empty (release kernel 1 '_Z6KernelP4NodePiPbS2_S2_S1_i').
GPGPU-Sim uArch: GPU detected kernel '_Z6KernelP4NodePiPbS2_S2_S1_i' finished on shader 1.
kernel_name = _Z6KernelP4NodePiPbS2_S2_S1_i 
kernel_launch_uid = 1 
gpu_sim_cycle = 8376
gpu_sim_insn = 450436
gpu_ipc =      53.7770
gpu_tot_sim_cycle = 8376
gpu_tot_sim_insn = 450436
gpu_tot_ipc =      53.7770
gpu_tot_issued_cta = 0
gpu_stall_dramfull = 298
gpu_stall_icnt2sh    = 167
gpu_total_sim_rate=225218

========= Core cache stats =========
L1I_cache:
	L1I_total_cache_accesses = 10218
	L1I_total_cache_misses = 962
	L1I_total_cache_miss_rate = 0.0941
	L1I_total_cache_pending_hits = 0
	L1I_total_cache_reservation_fails = 6744
L1D_cache:
	L1D_cache_core[0]: Access = 96, Miss = 24, Miss_rate = 0.250, Pending_hits = 72, Reservation_fails = 0
	L1D_cache_core[1]: Access = 172, Miss = 63, Miss_rate = 0.366, Pending_hits = 48, Reservation_fails = 0
	L1D_cache_core[2]: Access = 80, Miss = 20, Miss_rate = 0.250, Pending_hits = 60, Reservation_fails = 0
	L1D_cache_core[3]: Access = 96, Miss = 24, Miss_rate = 0.250, Pending_hits = 72, Reservation_fails = 0
	L1D_cache_core[4]: Access = 96, Miss = 24, Miss_rate = 0.250, Pending_hits = 72, Reservation_fails = 0
	L1D_cache_core[5]: Access = 96, Miss = 24, Miss_rate = 0.250, Pending_hits = 72, Reservation_fails = 0
	L1D_cache_core[6]: Access = 64, Miss = 16, Miss_rate = 0.250, Pending_hits = 48, Reservation_fails = 0
	L1D_cache_core[7]: Access = 48, Miss = 12, Miss_rate = 0.250, Pending_hits = 36, Reservation_fails = 0
	L1D_cache_core[8]: Access = 48, Miss = 12, Miss_rate = 0.250, Pending_hits = 36, Reservation_fails = 0
	L1D_cache_core[9]: Access = 48, Miss = 12, Miss_rate = 0.250, Pending_hits = 36, Reservation_fails = 0
	L1D_cache_core[10]: Access = 48, Miss = 12, Miss_rate = 0.250, Pending_hits = 36, Reservation_fails = 0
	L1D_cache_core[11]: Access = 72, Miss = 18, Miss_rate = 0.250, Pending_hits = 54, Reservation_fails = 0
	L1D_cache_core[12]: Access = 48, Miss = 12, Miss_rate = 0.250, Pending_hits = 36, Reservation_fails = 0
	L1D_cache_core[13]: Access = 48, Miss = 12, Miss_rate = 0.250, Pending_hits = 36, Reservation_fails = 0
	L1D_cache_core[14]: Access = 48, Miss = 12, Miss_rate = 0.250, Pending_hits = 36, Reservation_fails = 0
	L1D_total_cache_accesses = 1108
	L1D_total_cache_misses = 297
	L1D_total_cache_miss_rate = 0.2681
	L1D_total_cache_pending_hits = 750
	L1D_total_cache_reservation_fails = 0
	L1D_cache_data_port_util = 0.002
	L1D_cache_fill_port_util = 0.009
L1C_cache:
	L1C_total_cache_accesses = 2041
	L1C_total_cache_misses = 480
	L1C_total_cache_miss_rate = 0.2352
	L1C_total_cache_pending_hits = 0
	L1C_total_cache_reservation_fails = 3411
L1T_cache:
	L1T_total_cache_accesses = 0
	L1T_total_cache_misses = 0
	L1T_total_cache_pending_hits = 0
	L1T_total_cache_reservation_fails = 0

Total_core_cache_stats:
	Total_core_cache_stats_breakdown[GLOBAL_ACC_R][HIT] = 60
	Total_core_cache_stats_breakdown[GLOBAL_ACC_R][HIT_RESERVED] = 750
	Total_core_cache_stats_breakdown[GLOBAL_ACC_R][MISS] = 267
	Total_core_cache_stats_breakdown[CONST_ACC_R][HIT] = 1561
	Total_core_cache_stats_breakdown[CONST_ACC_R][MISS] = 480
	Total_core_cache_stats_breakdown[CONST_ACC_R][RESERVATION_FAIL] = 3411
	Total_core_cache_stats_breakdown[GLOBAL_ACC_W][HIT] = 1
	Total_core_cache_stats_breakdown[GLOBAL_ACC_W][MISS] = 30
	Total_core_cache_stats_breakdown[INST_ACC_R][HIT] = 9256
	Total_core_cache_stats_breakdown[INST_ACC_R][MISS] = 962
	Total_core_cache_stats_breakdown[INST_ACC_R][RESERVATION_FAIL] = 6744
Shader 0 warp_id issue ditsribution:
warp_id:
0, 1, 2, 3, 4, 5, 6, 7, 8, 9, 10, 11, 12, 13, 14, 15, 16, 17, 18, 19, 20, 21, 22, 23, 24, 25, 26, 27, 28, 29, 30, 31, 32, 33, 34, 35, 36, 37, 38, 39, 40, 41, 42, 43, 44, 45, 46, 47, 
distro:
30, 30, 30, 30, 30, 30, 30, 30, 30, 30, 30, 30, 30, 30, 30, 30, 30, 30, 30, 30, 30, 30, 30, 30, 30, 30, 30, 30, 30, 30, 30, 30, 30, 30, 30, 30, 30, 30, 30, 30, 30, 30, 30, 30, 30, 30, 30, 30, 
gpgpu_n_tot_thrd_icount = 495040
gpgpu_n_tot_w_icount = 15470
gpgpu_n_stall_shd_mem = 3411
gpgpu_n_mem_read_local = 0
gpgpu_n_mem_write_local = 0
gpgpu_n_mem_read_global = 267
gpgpu_n_mem_write_global = 31
gpgpu_n_mem_texture = 0
gpgpu_n_mem_const = 15
gpgpu_n_load_insn  = 32077
gpgpu_n_store_insn = 31
gpgpu_n_shmem_insn = 0
gpgpu_n_tex_insn = 0
gpgpu_n_const_mem_insn = 0
gpgpu_n_param_mem_insn = 64289
gpgpu_n_shmem_bkconflict = 0
gpgpu_n_cache_bkconflict = 0
gpgpu_n_intrawarp_mshr_merge = 0
gpgpu_n_cmem_portconflict = 3411
gpgpu_stall_shd_mem[c_mem][bk_conf] = 3411
gpgpu_stall_shd_mem[c_mem][mshr_rc] = 0
gpgpu_stall_shd_mem[c_mem][icnt_rc] = 0
gpgpu_stall_shd_mem[c_mem][data_port_stall] = 0
gpgpu_stall_shd_mem[t_mem][mshr_rc] = 0
gpgpu_stall_shd_mem[t_mem][icnt_rc] = 0
gpgpu_stall_shd_mem[t_mem][data_port_stall] = 0
gpgpu_stall_shd_mem[s_mem][bk_conf] = 0
gpgpu_stall_shd_mem[gl_mem][bk_conf] = 0
gpgpu_stall_shd_mem[gl_mem][coal_stall] = 0
gpgpu_stall_shd_mem[gl_mem][data_port_stall] = 0
gpgpu_stall_shd_mem[g_mem_ld][mshr_rc] = 0
gpgpu_stall_shd_mem[g_mem_ld][icnt_rc] = 0
gpgpu_stall_shd_mem[g_mem_ld][wb_icnt_rc] = 0
gpgpu_stall_shd_mem[g_mem_ld][wb_rsrv_fail] = 0
gpgpu_stall_shd_mem[g_mem_st][mshr_rc] = 0
gpgpu_stall_shd_mem[g_mem_st][icnt_rc] = 0
gpgpu_stall_shd_mem[g_mem_st][wb_icnt_rc] = 0
gpgpu_stall_shd_mem[g_mem_st][wb_rsrv_fail] = 0
gpgpu_stall_shd_mem[l_mem_ld][mshr_rc] = 0
gpgpu_stall_shd_mem[l_mem_ld][icnt_rc] = 0
gpgpu_stall_shd_mem[l_mem_ld][wb_icnt_rc] = 0
gpgpu_stall_shd_mem[l_mem_ld][wb_rsrv_fail] = 0
gpgpu_stall_shd_mem[l_mem_st][mshr_rc] = 0
gpgpu_stall_shd_mem[l_mem_st][icnt_rc] = 0
gpgpu_stall_shd_mem[l_mem_ld][wb_icnt_rc] = 0
gpgpu_stall_shd_mem[l_mem_ld][wb_rsrv_fail] = 0
gpu_reg_bank_conflict_stalls = 0
Warp Occupancy Distribution:
Stall:6887	W0_Idle:22001	W0_Scoreboard:17280	W1:406	W2:0	W3:0	W4:0	W5:0	W6:0	W7:0	W8:0	W9:0	W10:0	W11:0	W12:0	W13:0	W14:0	W15:0	W16:0	W17:0	W18:0	W19:0	W20:0	W21:0	W22:0	W23:0	W24:0	W25:0	W26:0	W27:0	W28:0	W29:0	W30:0	W31:0	W32:15064
traffic_breakdown_coretomem[CONST_ACC_R] = 120 {8:15,}
traffic_breakdown_coretomem[GLOBAL_ACC_R] = 2136 {8:267,}
traffic_breakdown_coretomem[GLOBAL_ACC_W] = 1240 {40:31,}
traffic_breakdown_coretomem[INST_ACC_R] = 256 {8:32,}
traffic_breakdown_memtocore[CONST_ACC_R] = 1080 {72:15,}
traffic_breakdown_memtocore[GLOBAL_ACC_R] = 36312 {136:267,}
traffic_breakdown_memtocore[GLOBAL_ACC_W] = 248 {8:31,}
traffic_breakdown_memtocore[INST_ACC_R] = 4352 {136:32,}
maxmrqlatency = 22 
maxdqlatency = 0 
maxmflatency = 290 
averagemflatency = 264 
max_icnt2mem_latency = 36 
max_icnt2sh_latency = 8375 
mrq_lat_table:235 	12 	50 	26 	7 	0 	0 	0 	0 	0 	0 	0 	0 	0 	0 	0 	0 	0 	0 	0 	0 	0 	0 	0 	0 	0 	0 	0 	0 	0 	0 	0 	
dq_lat_table:0 	0 	0 	0 	0 	0 	0 	0 	0 	0 	0 	0 	0 	0 	0 	0 	0 	0 	0 	0 	0 	0 	0 	0 	0 	0 	0 	0 	0 	0 	0 	0 	
mf_lat_table:0 	0 	0 	0 	0 	0 	0 	36 	277 	0 	0 	0 	0 	0 	0 	0 	0 	0 	0 	0 	0 	0 	0 	0 	0 	0 	0 	0 	0 	0 	0 	0 	
icnt2mem_lat_table:0 	0 	0 	334 	8 	3 	0 	0 	0 	0 	0 	0 	0 	0 	0 	0 	0 	0 	0 	0 	0 	0 	0 	0 	
icnt2sh_lat_table:0 	0 	0 	205 	76 	1 	0 	0 	0 	0 	1 	6 	22 	2 	0 	0 	0 	0 	0 	0 	0 	0 	0 	0 	
mf_lat_pw_table:0 	0 	0 	0 	0 	0 	0 	9 	6 	0 	0 	0 	0 	0 	0 	0 	0 	0 	0 	0 	0 	0 	0 	0 	0 	0 	0 	0 	0 	0 	0 	0 	
maximum concurrent accesses to same row:
dram[0]:         1         0         0         0         0         0         0         0         0         0         0         0         0         0         0         0 
dram[1]:         0         0         0         0         0         0         0         0         0         0         0         0         0         0         0         0 
dram[2]:         0         0         0         0         0         1         0         0         0         0         0         0         0         0         0         0 
dram[3]:         0         0         0         0         0         0         0         0         0         0         0         0         0         0         0         0 
dram[4]:         0         0         0         0         0         0         0         0         0         0         0         0         0         0         0         0 
dram[5]:         0         0         0         0         0         0         0         0         0         0         0         0         0         0         0         0 
maximum service time to same row:
dram[0]:       621         0       949       951      1119      1637      2751      5441         0      7547      8344         0         0         0      1899         0 
dram[1]:      1197         0       915       938      1029      1747      3924         0         0         0      3050         0         0         0         0         0 
dram[2]:         0         0       938       954      1066      1576         0      3521      7154         0         0         0         0         0         0         0 
dram[3]:         0         0       916       935      1668      1691         0      3118         0      6622         0      5835         0         0         0         0 
dram[4]:         0         0       943       963      1678      1701         0      2444      3856         0         0         0         0         0         0         0 
dram[5]:         0         0       925       919      1624      1750         0      7616         0         0      7950      3453         0         0         0         0 
average row accesses per activate:
dram[0]:  1.000000      -nan 14.000000 14.000000  8.000000 11.000000  4.000000  2.000000      -nan  2.000000  2.000000      -nan      -nan      -nan  1.000000      -nan 
dram[1]:  2.000000      -nan 14.000000 14.000000 10.000000  9.000000  4.000000      -nan      -nan      -nan  4.000000      -nan      -nan      -nan      -nan      -nan 
dram[2]:      -nan      -nan 14.000000 14.000000  8.000000  6.000000      -nan  3.000000  2.000000      -nan      -nan      -nan      -nan      -nan      -nan      -nan 
dram[3]:      -nan      -nan 14.000000 16.000000 10.000000  6.000000      -nan  2.000000      -nan  2.000000      -nan  2.000000      -nan      -nan      -nan      -nan 
dram[4]:      -nan      -nan 14.000000 16.000000 11.000000  7.000000      -nan  1.000000  2.000000      -nan      -nan      -nan      -nan      -nan      -nan      -nan 
dram[5]:      -nan      -nan 14.000000 16.000000 10.000000  9.000000      -nan  1.000000      -nan      -nan  2.000000  4.000000      -nan      -nan      -nan      -nan 
average row locality = 330/46 = 7.173913
number of total memory accesses made:
dram[0]:         0         0         0         0         0         0         0         0         0         0         0         0         0         0         0         0 
dram[1]:         0         0         0         0         0         0         0         0         0         0         0         0         0         0         0         0 
dram[2]:         0         0         0         0         0         0         0         0         0         0         0         0         0         0         0         0 
dram[3]:         0         0         0         0         0         0         0         0         0         0         0         0         0         0         0         0 
dram[4]:         0         0         0         0         0         0         0         0         0         0         0         0         0         0         0         0 
dram[5]:         0         0         0         0         0         0         0         0         0         0         0         0         0         0         0         0 
total accesses: 0
min_bank_accesses = 0!
min_chip_accesses = 0!
number of total read accesses:
dram[0]:         3         0        14        14         8         9         3         1         0         1         1         0         0         0         1         0 
dram[1]:         2         0        14        14         9         8         3         0         0         0         2         0         0         0         0         0 
dram[2]:         0         0        14        14         7        10         0         2         1         0         0         0         0         0         0         0 
dram[3]:         0         0        14        16         8         6         0         2         0         1         0         1         0         0         0         0 
dram[4]:         0         0        14        16         9         7         0         1         1         0         0         0         0         0         0         0 
dram[5]:         0         0        14        16         8         8         0         1         0         0         1         2         0         0         0         0 
total reads: 301
min_bank_accesses = 0!
chip skew: 55/48 = 1.15
number of total write accesses:
dram[0]:         0         0         0         0         0         2         1         1         0         1         1         0         0         0         0         0 
dram[1]:         0         0         0         0         1         1         1         0         0         0         2         0         0         0         0         0 
dram[2]:         0         0         0         0         1         2         0         1         1         0         0         0         0         0         0         0 
dram[3]:         0         0         0         0         2         0         0         0         0         1         0         1         0         0         0         0 
dram[4]:         0         0         0         0         2         0         0         0         1         0         0         0         0         0         0         0 
dram[5]:         0         0         0         0         2         1         0         0         0         0         1         2         0         0         0         0 
total reads: 29
min_bank_accesses = 0!
chip skew: 6/3 = 2.00
average mf latency per bank:
dram[0]:       1314    none         263       268       264       211       193       126    none         126       126    none      none      none         268    none  
dram[1]:          0    none         264       269       237       233       193    none      none      none         124    none      none      none      none      none  
dram[2]:     none      none         263       272       228       221    none         171       126    none      none      none      none      none      none      none  
dram[3]:     none      none         263       280       206       274    none         263    none         126    none         126    none      none      none      none  
dram[4]:     none      none         261       268       225       275    none         268       126    none      none      none      none      none      none      none  
dram[5]:     none      none         262       265       207       238    none         268    none      none         126       124    none      none      none      none  
maximum mf latency per bank:
dram[0]:        283         0       271       290       272       268       268       252         0       252       252         0         0         0       268         0
dram[1]:          0         0       281       285       289       275       268         0         0         0       252         0         0         0         0         0
dram[2]:          0         0       277       282       271       283         0       268       252         0         0         0         0         0         0         0
dram[3]:          0         0       272       283       268       280         0       268         0       252         0       252         0         0         0         0
dram[4]:          0         0       271       287       276       282         0       268       252         0         0         0         0         0         0         0
dram[5]:          0         0       269       277       268       286         0       268         0         0       252       252         0         0         0         0

Number of Memory Banks Accessed per Memory Operation per Warp (from 0):
0	0	0	0	0	0	0	0	0	0	0	0	0	0	0	0	0	0	0	0	0	0	0	0	0	0	0	0	0	0	0	0	0	0	0	0	0	0	0	0	0	0	0	0	0	0	0	0	0	0	0	0	0	0	0	0	0	0	0	0	0	0	0	0	0	0	0	0	0	0	0	0	0	0	0	0	0	0	0	0	0	0	0	0	0	0	0	0	0	0	0	0	0	0	0	0	
Average # of Memory Banks Accessed per Memory Operation per Warp=-nan

position of mrq chosen
0	0	0	0	0	0	0	0	0	0	0	0	0	0	0	0	

average position of mrq chosen = -nan
Memory Partition 0: 
Cache L2_bank_000:
MSHR contents

Cache L2_bank_001:
MSHR contents

In Dram Latency Queue (total = 0): 
DRAM[0]: 16 bks, busW=4 BL=8 CL=12, tRRD=2 tCCD=6, tRCD=12 tRAS=28 tRP=12 tRC=40
n_cmd=11056 n_nop=10926 n_act=12 n_pre=2 n_req=61 n_rd=110 n_write=6 bw_util=0.02098
n_activity=849 dram_eff=0.2733
bk0: 6a 10985i bk1: 0a 11055i bk2: 28a 10971i bk3: 28a 10913i bk4: 16a 11008i bk5: 18a 10976i bk6: 6a 11020i bk7: 2a 11032i bk8: 0a 11054i bk9: 2a 11031i bk10: 2a 11031i bk11: 0a 11054i bk12: 0a 11055i bk13: 0a 11055i bk14: 2a 11041i bk15: 0a 11057i 
dram_util_bins: 0 0 0 0 0 0 0 0 0 0
dram_eff_bins: 0 0 0 0 0 0 0 0 0 0
mrqq: max=2 avg=0.00868307
Memory Partition 1: 
Cache L2_bank_002:
MSHR contents

Cache L2_bank_003:
MSHR contents

In Dram Latency Queue (total = 0): 
DRAM[1]: 16 bks, busW=4 BL=8 CL=12, tRRD=2 tCCD=6, tRCD=12 tRAS=28 tRP=12 tRC=40
n_cmd=11056 n_nop=10940 n_act=7 n_pre=0 n_req=57 n_rd=104 n_write=5 bw_util=0.01972
n_activity=651 dram_eff=0.3349
bk0: 4a 11036i bk1: 0a 11057i bk2: 28a 10972i bk3: 28a 10928i bk4: 18a 10964i bk5: 16a 10995i bk6: 6a 11021i bk7: 0a 11056i bk8: 0a 11056i bk9: 0a 11056i bk10: 4a 11018i bk11: 0a 11054i bk12: 0a 11054i bk13: 0a 11055i bk14: 0a 11055i bk15: 0a 11057i 
dram_util_bins: 0 0 0 0 0 0 0 0 0 0
dram_eff_bins: 0 0 0 0 0 0 0 0 0 0
mrqq: max=3 avg=0.0119392
Memory Partition 2: 
Cache L2_bank_004:
MSHR contents

Cache L2_bank_005:
MSHR contents
MSHR: tag=0x80240c00, atomic=0 1 entries : 0x7f85f3a99bf0 :  mf: uid= 23551, sid01:w00, part=2, addr=0x80240c20, load , size=32, unknown  status = IN_PARTITION_DRAM (8373), 

In Dram Latency Queue (total = 0): 
DRAM[2]: 16 bks, busW=4 BL=8 CL=12, tRRD=2 tCCD=6, tRCD=12 tRAS=28 tRP=12 tRC=40
n_cmd=11056 n_nop=10947 n_act=7 n_pre=1 n_req=53 n_rd=96 n_write=5 bw_util=0.01827
n_activity=588 dram_eff=0.3435
bk0: 0a 11057i bk1: 0a 11059i bk2: 28a 10977i bk3: 28a 10914i bk4: 14a 10995i bk5: 20a 10944i bk6: 0a 11055i bk7: 4a 11023i bk8: 2a 11030i bk9: 0a 11053i bk10: 0a 11053i bk11: 0a 11053i bk12: 0a 11053i bk13: 0a 11055i bk14: 0a 11056i bk15: 0a 11057i 
dram_util_bins: 0 0 0 0 0 0 0 0 0 0
dram_eff_bins: 0 0 0 0 0 0 0 0 0 0
mrqq: max=2 avg=0.0144718
Memory Partition 3: 
Cache L2_bank_006:
MSHR contents

Cache L2_bank_007:
MSHR contents

In Dram Latency Queue (total = 0): 
DRAM[3]: 16 bks, busW=4 BL=8 CL=12, tRRD=2 tCCD=6, tRCD=12 tRAS=28 tRP=12 tRC=40
n_cmd=11056 n_nop=10949 n_act=7 n_pre=0 n_req=52 n_rd=96 n_write=4 bw_util=0.01809
n_activity=533 dram_eff=0.3752
bk0: 0a 11058i bk1: 0a 11059i bk2: 28a 10968i bk3: 32a 10889i bk4: 16a 10986i bk5: 12a 11005i bk6: 0a 11056i bk7: 4a 11036i bk8: 0a 11055i bk9: 2a 11032i bk10: 0a 11054i bk11: 2a 11032i bk12: 0a 11053i bk13: 0a 11054i bk14: 0a 11054i bk15: 0a 11055i 
dram_util_bins: 0 0 0 0 0 0 0 0 0 0
dram_eff_bins: 0 0 0 0 0 0 0 0 0 0
mrqq: max=2 avg=0.0170948
Memory Partition 4: 
Cache L2_bank_008:
MSHR contents

Cache L2_bank_009:
MSHR contents

In Dram Latency Queue (total = 0): 
DRAM[4]: 16 bks, busW=4 BL=8 CL=12, tRRD=2 tCCD=6, tRCD=12 tRAS=28 tRP=12 tRC=40
n_cmd=11056 n_nop=10951 n_act=6 n_pre=0 n_req=51 n_rd=96 n_write=3 bw_util=0.01791
n_activity=522 dram_eff=0.3793
bk0: 0a 11058i bk1: 0a 11059i bk2: 28a 10981i bk3: 32a 10923i bk4: 18a 10982i bk5: 14a 11003i bk6: 0a 11055i bk7: 2a 11040i bk8: 2a 11032i bk9: 0a 11053i bk10: 0a 11054i bk11: 0a 11055i bk12: 0a 11055i bk13: 0a 11055i bk14: 0a 11055i bk15: 0a 11055i 
dram_util_bins: 0 0 0 0 0 0 0 0 0 0
dram_eff_bins: 0 0 0 0 0 0 0 0 0 0
mrqq: max=3 avg=0.0136577
Memory Partition 5: 
Cache L2_bank_010:
MSHR contents

Cache L2_bank_011:
MSHR contents

In Dram Latency Queue (total = 0): 
DRAM[5]: 16 bks, busW=4 BL=8 CL=12, tRRD=2 tCCD=6, tRCD=12 tRAS=28 tRP=12 tRC=40
n_cmd=11056 n_nop=10943 n_act=7 n_pre=0 n_req=56 n_rd=100 n_write=6 bw_util=0.01918
n_activity=622 dram_eff=0.3408
bk0: 0a 11057i bk1: 0a 11060i bk2: 28a 10978i bk3: 32a 10911i bk4: 16a 10985i bk5: 16a 10993i bk6: 0a 11054i bk7: 2a 11038i bk8: 0a 11053i bk9: 0a 11054i bk10: 2a 11033i bk11: 4a 11018i bk12: 0a 11054i bk13: 0a 11055i bk14: 0a 11056i bk15: 0a 11056i 
dram_util_bins: 0 0 0 0 0 0 0 0 0 0
dram_eff_bins: 0 0 0 0 0 0 0 0 0 0
mrqq: max=2 avg=0.00832127

========= L2 cache stats =========
L2_cache_bank[0]: Access = 58, Miss = 30, Miss_rate = 0.517, Pending_hits = 6, Reservation_fails = 227
L2_cache_bank[1]: Access = 25, Miss = 25, Miss_rate = 1.000, Pending_hits = 0, Reservation_fails = 0
L2_cache_bank[2]: Access = 44, Miss = 30, Miss_rate = 0.682, Pending_hits = 3, Reservation_fails = 114
L2_cache_bank[3]: Access = 22, Miss = 22, Miss_rate = 1.000, Pending_hits = 0, Reservation_fails = 0
L2_cache_bank[4]: Access = 22, Miss = 22, Miss_rate = 1.000, Pending_hits = 0, Reservation_fails = 0
L2_cache_bank[5]: Access = 26, Miss = 26, Miss_rate = 1.000, Pending_hits = 0, Reservation_fails = 0
L2_cache_bank[6]: Access = 22, Miss = 22, Miss_rate = 1.000, Pending_hits = 0, Reservation_fails = 0
L2_cache_bank[7]: Access = 27, Miss = 26, Miss_rate = 0.963, Pending_hits = 0, Reservation_fails = 0
L2_cache_bank[8]: Access = 25, Miss = 24, Miss_rate = 0.960, Pending_hits = 0, Reservation_fails = 0
L2_cache_bank[9]: Access = 24, Miss = 24, Miss_rate = 1.000, Pending_hits = 0, Reservation_fails = 0
L2_cache_bank[10]: Access = 23, Miss = 23, Miss_rate = 1.000, Pending_hits = 0, Reservation_fails = 0
L2_cache_bank[11]: Access = 27, Miss = 27, Miss_rate = 1.000, Pending_hits = 0, Reservation_fails = 0
L2_total_cache_accesses = 345
L2_total_cache_misses = 301
L2_total_cache_miss_rate = 0.8725
L2_total_cache_pending_hits = 9
L2_total_cache_reservation_fails = 341
L2_total_cache_breakdown:
	L2_cache_stats_breakdown[GLOBAL_ACC_R][MISS] = 267
	L2_cache_stats_breakdown[CONST_ACC_R][HIT] = 11
	L2_cache_stats_breakdown[CONST_ACC_R][HIT_RESERVED] = 3
	L2_cache_stats_breakdown[CONST_ACC_R][MISS] = 1
	L2_cache_stats_breakdown[CONST_ACC_R][RESERVATION_FAIL] = 111
	L2_cache_stats_breakdown[GLOBAL_ACC_W][HIT] = 2
	L2_cache_stats_breakdown[GLOBAL_ACC_W][MISS] = 29
	L2_cache_stats_breakdown[INST_ACC_R][HIT] = 22
	L2_cache_stats_breakdown[INST_ACC_R][HIT_RESERVED] = 6
	L2_cache_stats_breakdown[INST_ACC_R][MISS] = 4
	L2_cache_stats_breakdown[INST_ACC_R][RESERVATION_FAIL] = 230
L2_cache_data_port_util = 0.001
L2_cache_fill_port_util = 0.012

icnt_total_pkts_mem_to_simt=1571
icnt_total_pkts_simt_to_mem=376
LD_mem_lat_dist  0 0 0 0 0 0 0 0 0 0 0 0 0 0 0 0 0 0 0 0 0 0 0 0 0 0 0
ST_mem_lat_dist  0 0 0 0 0 0 0 0 0 0 0 0 0 0 0 0 0 0 0 0 0 0 0 0 0 0 0
----------------------------Interconnect-DETAILS--------------------------------
Class 0:
Packet latency average = 9.74928
	minimum = 6
	maximum = 34
Network latency average = 9.22899
	minimum = 6
	maximum = 34
Slowest packet = 14
Flit latency average = 7.80072
	minimum = 6
	maximum = 34
Slowest flit = 14
Fragmentation average = 0
	minimum = 0
	maximum = 0
Injected packet rate average = 0.00305105
	minimum = 0.00179083 (at node 7)
	maximum = 0.00823782 (at node 1)
Accepted packet rate average = 0.00305105
	minimum = 0.00179083 (at node 7)
	maximum = 0.00823782 (at node 1)
Injected flit rate average = 0.00860925
	minimum = 0.00179083 (at node 7)
	maximum = 0.030086 (at node 15)
Accepted flit rate average= 0.00860925
	minimum = 0.00274594 (at node 18)
	maximum = 0.0261461 (at node 1)
Injected packet length average = 2.82174
Accepted packet length average = 2.82174
Total in-flight flits = 0 (0 measured)
====== Overall Traffic Statistics ======
====== Traffic class 0 ======
Packet latency average = 9.74928 (1 samples)
	minimum = 6 (1 samples)
	maximum = 34 (1 samples)
Network latency average = 9.22899 (1 samples)
	minimum = 6 (1 samples)
	maximum = 34 (1 samples)
Flit latency average = 7.80072 (1 samples)
	minimum = 6 (1 samples)
	maximum = 34 (1 samples)
Fragmentation average = 0 (1 samples)
	minimum = 0 (1 samples)
	maximum = 0 (1 samples)
Injected packet rate average = 0.00305105 (1 samples)
	minimum = 0.00179083 (1 samples)
	maximum = 0.00823782 (1 samples)
Accepted packet rate average = 0.00305105 (1 samples)
	minimum = 0.00179083 (1 samples)
	maximum = 0.00823782 (1 samples)
Injected flit rate average = 0.00860925 (1 samples)
	minimum = 0.00179083 (1 samples)
	maximum = 0.030086 (1 samples)
Accepted flit rate average = 0.00860925 (1 samples)
	minimum = 0.00274594 (1 samples)
	maximum = 0.0261461 (1 samples)
Injected packet size average = 2.82174 (1 samples)
Accepted packet size average = 2.82174 (1 samples)
Hops average = 1 (1 samples)
----------------------------END-of-Interconnect-DETAILS-------------------------


gpgpu_simulation_time = 0 days, 0 hrs, 0 min, 2 sec (2 sec)
gpgpu_simulation_rate = 225218 (inst/sec)
gpgpu_simulation_rate = 4188 (cycle/sec)

GPGPU-Sim PTX: cudaLaunch for 0x0x4017d8 (mode=performance simulation) on stream 0
GPGPU-Sim PTX: pushing kernel '_Z7Kernel2PbS_S_S_i' to stream 0, gridDim= (63,1,1) blockDim = (512,1,1) 
kernel '_Z7Kernel2PbS_S_S_i' transfer to GPU hardware scheduler
GPGPU-Sim uArch: Shader 12 bind to kernel 2 '_Z7Kernel2PbS_S_S_i'
GPGPU-Sim uArch: CTA/core = 3, limited by: threads
GPGPU-Sim uArch: core: 12, cta: 0 initialized @(1,8376)
GPGPU-Sim uArch: Shader 13 bind to kernel 2 '_Z7Kernel2PbS_S_S_i'
GPGPU-Sim uArch: core: 13, cta: 0 initialized @(1,8376)
GPGPU-Sim uArch: Shader 14 bind to kernel 2 '_Z7Kernel2PbS_S_S_i'
GPGPU-Sim uArch: core: 14, cta: 0 initialized @(1,8376)
GPGPU-Sim uArch: Shader 0 bind to kernel 2 '_Z7Kernel2PbS_S_S_i'
GPGPU-Sim uArch: core:  0, cta: 0 initialized @(1,8376)
GPGPU-Sim uArch: Shader 1 bind to kernel 2 '_Z7Kernel2PbS_S_S_i'
GPGPU-Sim uArch: core:  1, cta: 0 initialized @(1,8376)
GPGPU-Sim uArch: Shader 2 bind to kernel 2 '_Z7Kernel2PbS_S_S_i'
GPGPU-Sim uArch: core:  2, cta: 0 initialized @(1,8376)
GPGPU-Sim uArch: Shader 3 bind to kernel 2 '_Z7Kernel2PbS_S_S_i'
GPGPU-Sim uArch: core:  3, cta: 0 initialized @(1,8376)
GPGPU-Sim uArch: Shader 4 bind to kernel 2 '_Z7Kernel2PbS_S_S_i'
GPGPU-Sim uArch: core:  4, cta: 0 initialized @(1,8376)
GPGPU-Sim uArch: Shader 5 bind to kernel 2 '_Z7Kernel2PbS_S_S_i'
GPGPU-Sim uArch: core:  5, cta: 0 initialized @(1,8376)
GPGPU-Sim uArch: Shader 6 bind to kernel 2 '_Z7Kernel2PbS_S_S_i'
GPGPU-Sim uArch: core:  6, cta: 0 initialized @(1,8376)
GPGPU-Sim uArch: Shader 7 bind to kernel 2 '_Z7Kernel2PbS_S_S_i'
GPGPU-Sim uArch: core:  7, cta: 0 initialized @(1,8376)
GPGPU-Sim uArch: Shader 8 bind to kernel 2 '_Z7Kernel2PbS_S_S_i'
GPGPU-Sim uArch: core:  8, cta: 0 initialized @(1,8376)
GPGPU-Sim uArch: Shader 9 bind to kernel 2 '_Z7Kernel2PbS_S_S_i'
GPGPU-Sim uArch: core:  9, cta: 0 initialized @(1,8376)
GPGPU-Sim uArch: Shader 10 bind to kernel 2 '_Z7Kernel2PbS_S_S_i'
GPGPU-Sim uArch: core: 10, cta: 0 initialized @(1,8376)
GPGPU-Sim uArch: Shader 11 bind to kernel 2 '_Z7Kernel2PbS_S_S_i'
GPGPU-Sim uArch: core: 11, cta: 0 initialized @(1,8376)
GPGPU-Sim uArch: core: 12, cta: 1 initialized @(2,8376)
GPGPU-Sim uArch: core: 13, cta: 1 initialized @(2,8376)
GPGPU-Sim uArch: core: 14, cta: 1 initialized @(2,8376)
GPGPU-Sim uArch: core:  0, cta: 1 initialized @(2,8376)
GPGPU-Sim uArch: core:  1, cta: 1 initialized @(2,8376)
GPGPU-Sim uArch: core:  2, cta: 1 initialized @(2,8376)
GPGPU-Sim uArch: core:  3, cta: 1 initialized @(2,8376)
GPGPU-Sim uArch: core:  4, cta: 1 initialized @(2,8376)
GPGPU-Sim uArch: core:  5, cta: 1 initialized @(2,8376)
GPGPU-Sim uArch: core:  6, cta: 1 initialized @(2,8376)
GPGPU-Sim uArch: core:  7, cta: 1 initialized @(2,8376)
GPGPU-Sim uArch: core:  8, cta: 1 initialized @(2,8376)
GPGPU-Sim uArch: core:  9, cta: 1 initialized @(2,8376)
GPGPU-Sim uArch: core: 10, cta: 1 initialized @(2,8376)
GPGPU-Sim uArch: core: 11, cta: 1 initialized @(2,8376)
GPGPU-Sim uArch: core: 12, cta: 2 initialized @(3,8376)
GPGPU-Sim uArch: core: 13, cta: 2 initialized @(3,8376)
GPGPU-Sim uArch: core: 14, cta: 2 initialized @(3,8376)
GPGPU-Sim uArch: core:  0, cta: 2 initialized @(3,8376)
GPGPU-Sim uArch: core:  1, cta: 2 initialized @(3,8376)
GPGPU-Sim uArch: core:  2, cta: 2 initialized @(3,8376)
GPGPU-Sim uArch: core:  3, cta: 2 initialized @(3,8376)
GPGPU-Sim uArch: core:  4, cta: 2 initialized @(3,8376)
GPGPU-Sim uArch: core:  5, cta: 2 initialized @(3,8376)
GPGPU-Sim uArch: core:  6, cta: 2 initialized @(3,8376)
GPGPU-Sim uArch: core:  7, cta: 2 initialized @(3,8376)
GPGPU-Sim uArch: core:  8, cta: 2 initialized @(3,8376)
GPGPU-Sim uArch: core:  9, cta: 2 initialized @(3,8376)
GPGPU-Sim uArch: core: 10, cta: 2 initialized @(3,8376)
GPGPU-Sim uArch: core: 11, cta: 2 initialized @(3,8376)
GPGPU-Sim PTX: 500000 instructions simulated : ctaid=(22,0,0) tid=(9,0,0)
GPGPU-Sim PTX: 600000 instructions simulated : ctaid=(9,0,0) tid=(457,0,0)
GPGPU-Sim PTX: 700000 instructions simulated : ctaid=(4,0,0) tid=(457,0,0)
GPGPU-Sim uArch: cycles simulated: 8876  inst.: 638628 (ipc=376.4) sim_rate=212876 (inst/sec) elapsed = 0:0:00:03 / Wed Apr 17 12:22:55 2019
GPGPU-Sim PTX: 800000 instructions simulated : ctaid=(32,0,0) tid=(463,0,0)
GPGPU-Sim uArch: Shader 9 finished CTA #2 (954,8376), 2 CTAs running
GPGPU-Sim uArch: core:  9, cta: 2 initialized @(955,8376)
GPGPU-Sim uArch: Shader 5 finished CTA #2 (960,8376), 2 CTAs running
GPGPU-Sim uArch: core:  5, cta: 2 initialized @(961,8376)
GPGPU-Sim uArch: Shader 1 finished CTA #2 (967,8376), 2 CTAs running
GPGPU-Sim uArch: core:  1, cta: 2 initialized @(968,8376)
GPGPU-Sim uArch: Shader 9 finished CTA #1 (972,8376), 2 CTAs running
GPGPU-Sim uArch: core:  9, cta: 1 initialized @(973,8376)
GPGPU-Sim uArch: Shader 8 finished CTA #1 (976,8376), 2 CTAs running
GPGPU-Sim uArch: core:  8, cta: 1 initialized @(977,8376)
GPGPU-Sim uArch: Shader 5 finished CTA #1 (977,8376), 2 CTAs running
GPGPU-Sim uArch: core:  5, cta: 1 initialized @(978,8376)
GPGPU-Sim uArch: Shader 7 finished CTA #2 (979,8376), 2 CTAs running
GPGPU-Sim uArch: core:  7, cta: 2 initialized @(980,8376)
GPGPU-Sim uArch: Shader 1 finished CTA #1 (984,8376), 2 CTAs running
GPGPU-Sim uArch: core:  1, cta: 1 initialized @(985,8376)
GPGPU-Sim uArch: Shader 13 finished CTA #1 (985,8376), 2 CTAs running
GPGPU-Sim uArch: core: 13, cta: 1 initialized @(986,8376)
GPGPU-Sim uArch: Shader 11 finished CTA #0 (991,8376), 2 CTAs running
GPGPU-Sim uArch: core: 11, cta: 0 initialized @(992,8376)
GPGPU-Sim uArch: Shader 8 finished CTA #2 (993,8376), 2 CTAs running
GPGPU-Sim uArch: core:  8, cta: 2 initialized @(994,8376)
GPGPU-Sim uArch: Shader 7 finished CTA #0 (996,8376), 2 CTAs running
GPGPU-Sim uArch: core:  7, cta: 0 initialized @(997,8376)
GPGPU-Sim uArch: Shader 0 finished CTA #2 (997,8376), 2 CTAs running
GPGPU-Sim uArch: core:  0, cta: 2 initialized @(998,8376)
GPGPU-Sim uArch: cycles simulated: 9376  inst.: 771727 (ipc=321.3) sim_rate=192931 (inst/sec) elapsed = 0:0:00:04 / Wed Apr 17 12:22:56 2019
GPGPU-Sim uArch: Shader 2 finished CTA #0 (1002,8376), 2 CTAs running
GPGPU-Sim uArch: Shader 2 finished CTA #1 (1002,8376), 1 CTAs running
GPGPU-Sim uArch: Shader 13 finished CTA #2 (1002,8376), 2 CTAs running
GPGPU-Sim uArch: core:  2, cta: 0 initialized @(1003,8376)
GPGPU-Sim uArch: core: 13, cta: 2 initialized @(1003,8376)
GPGPU-Sim uArch: core:  2, cta: 1 initialized @(1004,8376)
GPGPU-Sim uArch: Shader 3 finished CTA #0 (1008,8376), 2 CTAs running
GPGPU-Sim uArch: Shader 11 finished CTA #1 (1008,8376), 2 CTAs running
GPGPU-Sim uArch: core:  3, cta: 0 initialized @(1009,8376)
GPGPU-Sim uArch: core: 11, cta: 1 initialized @(1009,8376)
GPGPU-Sim uArch: Shader 0 finished CTA #0 (1014,8376), 2 CTAs running
GPGPU-Sim uArch: Shader 4 finished CTA #0 (1014,8376), 2 CTAs running
GPGPU-Sim uArch: Shader 4 finished CTA #1 (1017,8376), 1 CTAs running
GPGPU-Sim uArch: Shader 6 finished CTA #2 (1020,8376), 2 CTAs running
GPGPU-Sim uArch: Shader 6 finished CTA #0 (1020,8376), 1 CTAs running
GPGPU-Sim uArch: Shader 4 finished CTA #2 (1021,8376), 0 CTAs running
GPGPU-Sim uArch: Shader 4 empty (release kernel 2 '_Z7Kernel2PbS_S_S_i').
GPGPU-Sim uArch: Shader 3 finished CTA #1 (1025,8376), 2 CTAs running
GPGPU-Sim uArch: Shader 3 finished CTA #2 (1025,8376), 1 CTAs running
GPGPU-Sim uArch: Shader 10 finished CTA #0 (1026,8376), 2 CTAs running
GPGPU-Sim uArch: Shader 10 finished CTA #1 (1026,8376), 1 CTAs running
GPGPU-Sim uArch: Shader 6 finished CTA #1 (1027,8376), 0 CTAs running
GPGPU-Sim uArch: Shader 6 empty (release kernel 2 '_Z7Kernel2PbS_S_S_i').
GPGPU-Sim uArch: Shader 12 finished CTA #1 (1028,8376), 2 CTAs running
GPGPU-Sim uArch: Shader 10 finished CTA #2 (1033,8376), 0 CTAs running
GPGPU-Sim uArch: Shader 10 empty (release kernel 2 '_Z7Kernel2PbS_S_S_i').
GPGPU-Sim uArch: Shader 2 finished CTA #2 (1035,8376), 2 CTAs running
GPGPU-Sim uArch: Shader 12 finished CTA #0 (1035,8376), 1 CTAs running
GPGPU-Sim uArch: Shader 12 finished CTA #2 (1039,8376), 0 CTAs running
GPGPU-Sim uArch: Shader 12 empty (release kernel 2 '_Z7Kernel2PbS_S_S_i').
GPGPU-Sim uArch: Shader 14 finished CTA #0 (1045,8376), 2 CTAs running
GPGPU-Sim uArch: Shader 14 finished CTA #1 (1048,8376), 1 CTAs running
GPGPU-Sim uArch: Shader 14 finished CTA #2 (1052,8376), 0 CTAs running
GPGPU-Sim uArch: Shader 14 empty (release kernel 2 '_Z7Kernel2PbS_S_S_i').
GPGPU-Sim PTX: 900000 instructions simulated : ctaid=(50,0,0) tid=(180,0,0)
GPGPU-Sim uArch: Shader 1 finished CTA #0 (1183,8376), 2 CTAs running
GPGPU-Sim uArch: Shader 5 finished CTA #0 (1199,8376), 2 CTAs running
GPGPU-Sim uArch: Shader 7 finished CTA #1 (1201,8376), 2 CTAs running
GPGPU-Sim uArch: Shader 11 finished CTA #2 (1203,8376), 2 CTAs running
GPGPU-Sim uArch: Shader 8 finished CTA #0 (1204,8376), 2 CTAs running
GPGPU-Sim uArch: Shader 13 finished CTA #0 (1207,8376), 2 CTAs running
GPGPU-Sim uArch: Shader 0 finished CTA #1 (1208,8376), 1 CTAs running
GPGPU-Sim uArch: Shader 9 finished CTA #0 (1212,8376), 2 CTAs running
GPGPU-Sim uArch: Shader 1 finished CTA #2 (1404,8376), 1 CTAs running
GPGPU-Sim uArch: Shader 5 finished CTA #2 (1406,8376), 1 CTAs running
GPGPU-Sim uArch: Shader 0 finished CTA #2 (1408,8376), 0 CTAs running
GPGPU-Sim uArch: Shader 0 empty (release kernel 2 '_Z7Kernel2PbS_S_S_i').
GPGPU-Sim uArch: Shader 3 finished CTA #0 (1413,8376), 0 CTAs running
GPGPU-Sim uArch: Shader 3 empty (release kernel 2 '_Z7Kernel2PbS_S_S_i').
GPGPU-Sim uArch: Shader 8 finished CTA #1 (1416,8376), 1 CTAs running
GPGPU-Sim uArch: Shader 13 finished CTA #1 (1422,8376), 1 CTAs running
GPGPU-Sim uArch: Shader 11 finished CTA #0 (1429,8376), 1 CTAs running
GPGPU-Sim uArch: Shader 9 finished CTA #2 (1433,8376), 1 CTAs running
GPGPU-Sim uArch: Shader 2 finished CTA #0 (1453,8376), 1 CTAs running
GPGPU-Sim uArch: Shader 7 finished CTA #2 (1456,8376), 1 CTAs running
GPGPU-Sim uArch: Shader 11 finished CTA #1 (1460,8376), 0 CTAs running
GPGPU-Sim uArch: Shader 11 empty (release kernel 2 '_Z7Kernel2PbS_S_S_i').
GPGPU-Sim uArch: Shader 9 finished CTA #1 (1467,8376), 0 CTAs running
GPGPU-Sim uArch: Shader 9 empty (release kernel 2 '_Z7Kernel2PbS_S_S_i').
GPGPU-Sim uArch: Shader 1 finished CTA #1 (1483,8376), 0 CTAs running
GPGPU-Sim uArch: Shader 1 empty (release kernel 2 '_Z7Kernel2PbS_S_S_i').
GPGPU-Sim uArch: Shader 7 finished CTA #0 (1495,8376), 0 CTAs running
GPGPU-Sim uArch: Shader 7 empty (release kernel 2 '_Z7Kernel2PbS_S_S_i').
GPGPU-Sim uArch: Shader 13 finished CTA #2 (1501,8376), 0 CTAs running
GPGPU-Sim uArch: Shader 13 empty (release kernel 2 '_Z7Kernel2PbS_S_S_i').
GPGPU-Sim uArch: Shader 2 finished CTA #1 (1511,8376), 0 CTAs running
GPGPU-Sim uArch: Shader 2 empty (release kernel 2 '_Z7Kernel2PbS_S_S_i').
GPGPU-Sim uArch: Shader 5 finished CTA #1 (1537,8376), 0 CTAs running
GPGPU-Sim uArch: Shader 5 empty (release kernel 2 '_Z7Kernel2PbS_S_S_i').
GPGPU-Sim uArch: Shader 8 finished CTA #2 (1549,8376), 0 CTAs running
GPGPU-Sim uArch: Shader 8 empty (release kernel 2 '_Z7Kernel2PbS_S_S_i').
GPGPU-Sim uArch: GPU detected kernel '_Z7Kernel2PbS_S_S_i' finished on shader 8.
kernel_name = _Z7Kernel2PbS_S_S_i 
kernel_launch_uid = 2 
gpu_sim_cycle = 1550
gpu_sim_insn = 450228
gpu_ipc =     290.4697
gpu_tot_sim_cycle = 9926
gpu_tot_sim_insn = 900664
gpu_tot_ipc =      90.7379
gpu_tot_issued_cta = 0
gpu_stall_dramfull = 412
gpu_stall_icnt2sh    = 621
gpu_total_sim_rate=225166

========= Core cache stats =========
L1I_cache:
	L1I_total_cache_accesses = 20293
	L1I_total_cache_misses = 1922
	L1I_total_cache_miss_rate = 0.0947
	L1I_total_cache_pending_hits = 0
	L1I_total_cache_reservation_fails = 11368
L1D_cache:
	L1D_cache_core[0]: Access = 164, Miss = 43, Miss_rate = 0.262, Pending_hits = 120, Reservation_fails = 0
	L1D_cache_core[1]: Access = 256, Miss = 85, Miss_rate = 0.332, Pending_hits = 108, Reservation_fails = 0
	L1D_cache_core[2]: Access = 160, Miss = 40, Miss_rate = 0.250, Pending_hits = 120, Reservation_fails = 0
	L1D_cache_core[3]: Access = 160, Miss = 40, Miss_rate = 0.250, Pending_hits = 120, Reservation_fails = 0
	L1D_cache_core[4]: Access = 144, Miss = 36, Miss_rate = 0.250, Pending_hits = 108, Reservation_fails = 0
	L1D_cache_core[5]: Access = 184, Miss = 50, Miss_rate = 0.272, Pending_hits = 132, Reservation_fails = 0
	L1D_cache_core[6]: Access = 112, Miss = 28, Miss_rate = 0.250, Pending_hits = 84, Reservation_fails = 0
	L1D_cache_core[7]: Access = 136, Miss = 38, Miss_rate = 0.279, Pending_hits = 96, Reservation_fails = 0
	L1D_cache_core[8]: Access = 144, Miss = 45, Miss_rate = 0.312, Pending_hits = 96, Reservation_fails = 0
	L1D_cache_core[9]: Access = 140, Miss = 41, Miss_rate = 0.293, Pending_hits = 96, Reservation_fails = 0
	L1D_cache_core[10]: Access = 96, Miss = 24, Miss_rate = 0.250, Pending_hits = 72, Reservation_fails = 0
	L1D_cache_core[11]: Access = 148, Miss = 39, Miss_rate = 0.264, Pending_hits = 108, Reservation_fails = 0
	L1D_cache_core[12]: Access = 96, Miss = 24, Miss_rate = 0.250, Pending_hits = 72, Reservation_fails = 0
	L1D_cache_core[13]: Access = 132, Miss = 35, Miss_rate = 0.265, Pending_hits = 96, Reservation_fails = 0
	L1D_cache_core[14]: Access = 96, Miss = 24, Miss_rate = 0.250, Pending_hits = 72, Reservation_fails = 0
	L1D_total_cache_accesses = 2168
	L1D_total_cache_misses = 592
	L1D_total_cache_miss_rate = 0.2731
	L1D_total_cache_pending_hits = 1500
	L1D_total_cache_reservation_fails = 0
	L1D_cache_data_port_util = 0.001
	L1D_cache_fill_port_util = 0.010
L1C_cache:
	L1C_total_cache_accesses = 4094
	L1C_total_cache_misses = 480
	L1C_total_cache_miss_rate = 0.1172
	L1C_total_cache_pending_hits = 0
	L1C_total_cache_reservation_fails = 3411
L1T_cache:
	L1T_total_cache_accesses = 0
	L1T_total_cache_misses = 0
	L1T_total_cache_pending_hits = 0
	L1T_total_cache_reservation_fails = 0

Total_core_cache_stats:
	Total_core_cache_stats_breakdown[GLOBAL_ACC_R][HIT] = 60
	Total_core_cache_stats_breakdown[GLOBAL_ACC_R][HIT_RESERVED] = 1500
	Total_core_cache_stats_breakdown[GLOBAL_ACC_R][MISS] = 517
	Total_core_cache_stats_breakdown[CONST_ACC_R][HIT] = 3614
	Total_core_cache_stats_breakdown[CONST_ACC_R][MISS] = 480
	Total_core_cache_stats_breakdown[CONST_ACC_R][RESERVATION_FAIL] = 3411
	Total_core_cache_stats_breakdown[GLOBAL_ACC_W][HIT] = 16
	Total_core_cache_stats_breakdown[GLOBAL_ACC_W][MISS] = 75
	Total_core_cache_stats_breakdown[INST_ACC_R][HIT] = 18371
	Total_core_cache_stats_breakdown[INST_ACC_R][MISS] = 1922
	Total_core_cache_stats_breakdown[INST_ACC_R][RESERVATION_FAIL] = 11368
Shader 0 warp_id issue ditsribution:
warp_id:
0, 1, 2, 3, 4, 5, 6, 7, 8, 9, 10, 11, 12, 13, 14, 15, 16, 17, 18, 19, 20, 21, 22, 23, 24, 25, 26, 27, 28, 29, 30, 31, 32, 33, 34, 35, 36, 37, 38, 39, 40, 41, 42, 43, 44, 45, 46, 47, 
distro:
45, 45, 45, 45, 45, 45, 45, 45, 45, 45, 45, 45, 45, 45, 45, 45, 45, 45, 45, 45, 45, 45, 45, 45, 45, 58, 45, 45, 45, 45, 45, 45, 60, 60, 60, 60, 60, 60, 60, 60, 60, 60, 60, 60, 60, 60, 60, 60, 
gpgpu_n_tot_thrd_icount = 983328
gpgpu_n_tot_w_icount = 30729
gpgpu_n_stall_shd_mem = 3411
gpgpu_n_mem_read_local = 0
gpgpu_n_mem_write_local = 0
gpgpu_n_mem_read_global = 517
gpgpu_n_mem_write_global = 91
gpgpu_n_mem_texture = 0
gpgpu_n_mem_const = 15
gpgpu_n_load_insn  = 64077
gpgpu_n_store_insn = 91
gpgpu_n_shmem_insn = 0
gpgpu_n_tex_insn = 0
gpgpu_n_const_mem_insn = 0
gpgpu_n_param_mem_insn = 128590
gpgpu_n_shmem_bkconflict = 0
gpgpu_n_cache_bkconflict = 0
gpgpu_n_intrawarp_mshr_merge = 0
gpgpu_n_cmem_portconflict = 3411
gpgpu_stall_shd_mem[c_mem][bk_conf] = 3411
gpgpu_stall_shd_mem[c_mem][mshr_rc] = 0
gpgpu_stall_shd_mem[c_mem][icnt_rc] = 0
gpgpu_stall_shd_mem[c_mem][data_port_stall] = 0
gpgpu_stall_shd_mem[t_mem][mshr_rc] = 0
gpgpu_stall_shd_mem[t_mem][icnt_rc] = 0
gpgpu_stall_shd_mem[t_mem][data_port_stall] = 0
gpgpu_stall_shd_mem[s_mem][bk_conf] = 0
gpgpu_stall_shd_mem[gl_mem][bk_conf] = 0
gpgpu_stall_shd_mem[gl_mem][coal_stall] = 0
gpgpu_stall_shd_mem[gl_mem][data_port_stall] = 0
gpgpu_stall_shd_mem[g_mem_ld][mshr_rc] = 0
gpgpu_stall_shd_mem[g_mem_ld][icnt_rc] = 0
gpgpu_stall_shd_mem[g_mem_ld][wb_icnt_rc] = 0
gpgpu_stall_shd_mem[g_mem_ld][wb_rsrv_fail] = 0
gpgpu_stall_shd_mem[g_mem_st][mshr_rc] = 0
gpgpu_stall_shd_mem[g_mem_st][icnt_rc] = 0
gpgpu_stall_shd_mem[g_mem_st][wb_icnt_rc] = 0
gpgpu_stall_shd_mem[g_mem_st][wb_rsrv_fail] = 0
gpgpu_stall_shd_mem[l_mem_ld][mshr_rc] = 0
gpgpu_stall_shd_mem[l_mem_ld][icnt_rc] = 0
gpgpu_stall_shd_mem[l_mem_ld][wb_icnt_rc] = 0
gpgpu_stall_shd_mem[l_mem_ld][wb_rsrv_fail] = 0
gpgpu_stall_shd_mem[l_mem_st][mshr_rc] = 0
gpgpu_stall_shd_mem[l_mem_st][icnt_rc] = 0
gpgpu_stall_shd_mem[l_mem_ld][wb_icnt_rc] = 0
gpgpu_stall_shd_mem[l_mem_ld][wb_rsrv_fail] = 0
gpu_reg_bank_conflict_stalls = 0
Warp Occupancy Distribution:
Stall:7383	W0_Idle:32712	W0_Scoreboard:30836	W1:601	W2:0	W3:0	W4:0	W5:0	W6:0	W7:0	W8:0	W9:0	W10:0	W11:0	W12:0	W13:0	W14:0	W15:0	W16:0	W17:0	W18:0	W19:0	W20:0	W21:0	W22:0	W23:0	W24:0	W25:0	W26:0	W27:0	W28:0	W29:0	W30:0	W31:0	W32:30128
traffic_breakdown_coretomem[CONST_ACC_R] = 120 {8:15,}
traffic_breakdown_coretomem[GLOBAL_ACC_R] = 4136 {8:517,}
traffic_breakdown_coretomem[GLOBAL_ACC_W] = 3640 {40:91,}
traffic_breakdown_coretomem[INST_ACC_R] = 496 {8:62,}
traffic_breakdown_memtocore[CONST_ACC_R] = 1080 {72:15,}
traffic_breakdown_memtocore[GLOBAL_ACC_R] = 70312 {136:517,}
traffic_breakdown_memtocore[GLOBAL_ACC_W] = 728 {8:91,}
traffic_breakdown_memtocore[INST_ACC_R] = 8432 {136:62,}
maxmrqlatency = 64 
maxdqlatency = 0 
maxmflatency = 344 
averagemflatency = 259 
max_icnt2mem_latency = 36 
max_icnt2sh_latency = 9925 
mrq_lat_table:356 	33 	81 	50 	24 	28 	1 	0 	0 	0 	0 	0 	0 	0 	0 	0 	0 	0 	0 	0 	0 	0 	0 	0 	0 	0 	0 	0 	0 	0 	0 	0 	
dq_lat_table:0 	0 	0 	0 	0 	0 	0 	0 	0 	0 	0 	0 	0 	0 	0 	0 	0 	0 	0 	0 	0 	0 	0 	0 	0 	0 	0 	0 	0 	0 	0 	0 	
mf_lat_table:0 	0 	0 	0 	0 	0 	0 	107 	516 	0 	0 	0 	0 	0 	0 	0 	0 	0 	0 	0 	0 	0 	0 	0 	0 	0 	0 	0 	0 	0 	0 	0 	
icnt2mem_lat_table:0 	0 	0 	661 	19 	5 	0 	0 	0 	0 	0 	0 	0 	0 	0 	0 	0 	0 	0 	0 	0 	0 	0 	0 	
icnt2sh_lat_table:0 	0 	0 	315 	192 	25 	0 	0 	0 	0 	1 	6 	22 	62 	0 	0 	0 	0 	0 	0 	0 	0 	0 	0 	
mf_lat_pw_table:0 	0 	0 	0 	0 	0 	0 	11 	7 	0 	0 	0 	0 	0 	0 	0 	0 	0 	0 	0 	0 	0 	0 	0 	0 	0 	0 	0 	0 	0 	0 	0 	
maximum concurrent accesses to same row:
dram[0]:         1         0         0         0         0         0         0         0         0         0         0         0         0         0         0         0 
dram[1]:         0         0         0         0         0         0         0         0         0         0         0         0         0         0         0         0 
dram[2]:         0         0         0         0         0         1         0         0         0         0         0         0         0         0         0         0 
dram[3]:         0         0         0         0         0         0         0         0         0         0         0         0         0         0         0         0 
dram[4]:         0         0         0         0         0         0         0         0         0         0         0         0         0         0         0         0 
dram[5]:         0         0         0         0         0         0         0         0         0         0         0         0         0         0         0         0 
maximum service time to same row:
dram[0]:       621         0       949       951      1119      1637      2751      5441         0      7547      8344         0         0         0      1899         0 
dram[1]:      1197         0       915       938      1029      1747      3924         0         0         0      3050         0         0         0         0         0 
dram[2]:       385         0       938       954      1066      1576         0      3521      7154         0         0         0         0      1163         0         0 
dram[3]:         0         0       916       935      1668      1691         0      3118         0      6622         0      5835         0         0         0         0 
dram[4]:         0         0       943       963      1678      1701         0      2444      3856         0         0         0         0         0         0         0 
dram[5]:         0         0       925       919      1624      1750         0      7616         0         0      7950      3453         0         0         0         0 
average row accesses per activate:
dram[0]:  1.000000      -nan 14.000000 14.000000 28.000000 31.000000  4.000000  2.000000      -nan  2.000000  2.000000      -nan      -nan      -nan  1.000000      -nan 
dram[1]:  2.000000      -nan 14.000000 14.000000 29.000000 28.000000  4.000000      -nan      -nan      -nan  4.000000      -nan      -nan      -nan      -nan      -nan 
dram[2]:  2.000000      -nan 14.000000 14.000000 29.000000 15.000000      -nan  3.000000  2.000000      -nan      -nan      -nan      -nan  5.000000      -nan      -nan 
dram[3]:      -nan      -nan 14.000000 16.000000 30.000000 26.000000      -nan  2.000000      -nan  2.000000      -nan  2.000000      -nan      -nan      -nan      -nan 
dram[4]:      -nan      -nan 14.000000 16.000000 31.000000 27.000000      -nan  1.000000  2.000000      -nan      -nan      -nan      -nan      -nan      -nan      -nan 
dram[5]:      -nan      -nan 14.000000 16.000000 30.000000 28.000000      -nan  1.000000      -nan      -nan  2.000000  4.000000      -nan      -nan      -nan      -nan 
average row locality = 573/48 = 11.937500
number of total memory accesses made:
dram[0]:         0         0         0         0         0         0         0         0         0         0         0         0         0         0         0         0 
dram[1]:         0         0         0         0         0         0         0         0         0         0         0         0         0         0         0         0 
dram[2]:         0         0         0         0         0         0         0         0         0         0         0         0         0         0         0         0 
dram[3]:         0         0         0         0         0         0         0         0         0         0         0         0         0         0         0         0 
dram[4]:         0         0         0         0         0         0         0         0         0         0         0         0         0         0         0         0 
dram[5]:         0         0         0         0         0         0         0         0         0         0         0         0         0         0         0         0 
total accesses: 0
min_bank_accesses = 0!
min_chip_accesses = 0!
number of total read accesses:
dram[0]:         3         0        14        14        28        29         3         1         0         1         1         0         0         0         1         0 
dram[1]:         2         0        14        14        28        27         3         0         0         0         2         0         0         0         0         0 
[...]
traffic_breakdown_coretomem[CONST_ACC_R] = 120 {8:15,}
traffic_breakdown_coretomem[GLOBAL_ACC_R] = 1603088 {8:200386,}
traffic_breakdown_coretomem[GLOBAL_ACC_W] = 9426304 {40:235338,72:34,136:76,}
traffic_breakdown_coretomem[INST_ACC_R] = 720 {8:90,}
traffic_breakdown_memtocore[CONST_ACC_R] = 1080 {72:15,}
traffic_breakdown_memtocore[GLOBAL_ACC_R] = 27252496 {136:200386,}
traffic_breakdown_memtocore[GLOBAL_ACC_W] = 1883584 {8:235448,}
traffic_breakdown_memtocore[INST_ACC_R] = 12240 {136:90,}
maxmrqlatency = 403 
maxdqlatency = 0 
maxmflatency = 1055 
averagemflatency = 341 
max_icnt2mem_latency = 753 
max_icnt2sh_latency = 304434 
mrq_lat_table:44309 	2147 	1596 	4011 	9135 	2990 	1107 	345 	11 	0 	0 	0 	0 	0 	0 	0 	0 	0 	0 	0 	0 	0 	0 	0 	0 	0 	0 	0 	0 	0 	0 	0 	
dq_lat_table:0 	0 	0 	0 	0 	0 	0 	0 	0 	0 	0 	0 	0 	0 	0 	0 	0 	0 	0 	0 	0 	0 	0 	0 	0 	0 	0 	0 	0 	0 	0 	0 	
mf_lat_table:0 	0 	0 	0 	0 	0 	0 	150009 	233842 	51994 	4 	0 	0 	0 	0 	0 	0 	0 	0 	0 	0 	0 	0 	0 	0 	0 	0 	0 	0 	0 	0 	0 	
icnt2mem_lat_table:0 	0 	0 	57817 	22899 	45976 	167618 	93064 	48206 	359 	0 	0 	0 	0 	0 	0 	0 	0 	0 	0 	0 	0 	0 	0 	
icnt2sh_lat_table:0 	0 	0 	15138 	90648 	87484 	6905 	224 	2 	0 	1 	6 	22 	465 	10375 	70857 	60436 	82403 	10883 	0 	0 	0 	0 	0 	
mf_lat_pw_table:0 	0 	0 	0 	0 	0 	0 	208 	409 	0 	0 	0 	0 	0 	0 	0 	0 	0 	0 	0 	0 	0 	0 	0 	0 	0 	0 	0 	0 	0 	0 	0 	
maximum concurrent accesses to same row:
dram[0]:        12        16        48        45        32        32        30        31        49        27        24        48        15        18        20        16 
dram[1]:        16        15        56        51        31        31        31        32        46        28        33        24         8        20        12         8 
dram[2]:        16        16        46        55        31        29        32        26        42        55        52        30        10        11        20        14 
dram[3]:        17        17        52        63        34        29        27        26        44        54        54        46        13        18         9        13 
dram[4]:        16        16        47        51        33        28        30        29        41        56        55        49        14        10        13        13 
dram[5]:        16        15        48        56        33        28        31        30        45        35        41        44        16        14        11        13 
maximum service time to same row:
dram[0]:     19314     13872     14135     21034     10437      7989      8612     10939      6474      7547      8344      6844      8709     17581     18646      8308 
dram[1]:     19056     16481     11444      7486      6154     12195     13293      4470      7269      4798      5668      6503      9812     12854     11528      8743 
dram[2]:     15097     31129      7052     19698     11716      9176      6765     10263     18596      7869      6889      9000      8099      9639     11488     12322 
dram[3]:      8237     12727      6183     21017      7358     10313      6532      6393      8027      6622      6479      8494     17875     13902     12388     10391 
dram[4]:     10072     16868      8091     14832     14290     13440      6325     12160      7954      9196      6533      7146      6199     10768      6397     13355 
dram[5]:     18825      7250     12537     16502      6588      7156      8885      7616      6876     14668      9032      8607      7151     11067      8284     15540 
average row accesses per activate:
dram[0]:  2.093750  2.033333  2.283582  2.244000  1.971989  2.160714  2.136986  2.071856  2.077922  2.193154  2.083682  1.980050  2.187500  2.240458  2.270833  2.141026 
dram[1]:  2.064777  2.075472  2.330909  2.195312  2.106667  2.065292  2.220994  2.136986  2.075388  2.124378  1.929524  2.039474  1.968254  2.152941  2.172691  2.129167 
dram[2]:  2.081545  2.165975  2.209486  2.032573  2.159745  2.092814  2.241158  2.121372  2.127907  2.225446  2.037611  2.127310  2.078853  2.103806  2.178571  2.169355 
dram[3]:  2.278947  2.251046  2.176692  2.519531  2.153846  2.106707  2.118644  2.185075  2.009524  2.004246  2.028037  2.013363  2.149425  2.018927  2.239437  2.404762 
dram[4]:  2.139344  2.042735  2.032362  2.313008  2.079208  2.107639  2.254335  2.198813  2.179372  2.110329  2.043307  2.042697  2.029605  2.212000  2.122605  2.212670 
dram[5]:  2.134454  2.137441  2.149837  2.200717  2.103333  2.122449  2.200000  2.154519  2.123077  2.066038  2.075051  2.074246  1.987302  2.027344  2.100000  2.363184 
average row locality = 65651/30926 = 2.122842
number of total memory accesses made:
dram[0]:         0         0         0         0         0         0         0         0         0         0         0         0         0         0         0         0 
dram[1]:         0         0         0         0         0         0         0         0         0         0         0         0         0         0         0         0 
dram[2]:         0         0         0         0         0         0         0         0         0         0         0         0         0         0         0         0 
dram[3]:         0         0         0         0         0         0         0         0         0         0         0         0         0         0         0         0 
dram[4]:         0         0         0         0         0         0         0         0         0         0         0         0         0         0         0         0 
dram[5]:         0         0         0         0         0         0         0         0         0         0         0         0         0         0         0         0 
total accesses: 0
min_bank_accesses = 0!
min_chip_accesses = 0!
number of total read accesses:
dram[0]:       536       488       523       470       625       540       645       596       752       674       757       611       594       550       545       501 
dram[1]:       510       440       527       474       562       534       687       673       736       652       769       710       574       517       541       511 
dram[2]:       485       522       475       538       591       630       603       691       697       740       695       773       554       578       488       538 
dram[3]:       433       538       474       507       550       619       650       639       640       731       672       684       528       618       477       505 
dram[4]:       522       478       538       472       567       545       666       644       743       686       772       680       582       531       554       489 
dram[5]:       508       451       556       500       571       558       698       640       731       671       771       677       584       506       546       475 
total reads: 56599
bank skew: 773/433 = 1.79
chip skew: 9598/9265 = 1.04
number of total write accesses:
dram[0]:         0         0        89        91        79        65       135        96       208       223       239       183        36        37         0         0 
dram[1]:         0         0       114        88        70        67       117       107       200       202       244       220        46        32         0         0 
dram[2]:         0         0        84        86        85        69        94       113       218       257       226       263        26        30         0         0 
dram[3]:         0         0       105       138        66        72       100        93       204       213       196       220        33        22         0         0 
dram[4]:         0         0        90        97        63        62       114        97       229       213       266       229        35        22         0         0 
dram[5]:         0         0       104       114        60        66       127        99       235       205       252       217        42        13         0         0 
total reads: 9052
min_bank_accesses = 0!
chip skew: 1551/1462 = 1.06
average mf latency per bank:
dram[0]:       1046      1027      1044      1067      5479      6428      3268      3493      1947      1999      1678      2215      1229      1193      1010       985
dram[1]:       1030      1062       937       982      5930      6048      3154      3004      1979      1811      1699      1726      1193      1164       965       921
dram[2]:       1018      1064      1076       993      5826      5645      3747      3169      2077      1854      1833      1658      1259      2885      1086       947
dram[3]:       1007       955       935       958      5921      5828      2923      3628      1990      2077      1860      1879      1070      1095       905      1025
dram[4]:       1058      1030      1042      1078      6337      6602      3321      3573      1898      1994      1759      1875      1267      1151      1017      1046
dram[5]:       1099      1069      1010       940      6718      6226      3525      3291      2052      2036      1941      1927      1312      1126      1063       950
maximum mf latency per bank:
dram[0]:        842       934       865       876       862       832      1044       944      1036       949       888       893       814       807       860       925
dram[1]:        807       880       871       822       909       842       854       839       964       880       899       872       852       824       845       986
dram[2]:        881       892       814       920       892      1055       978       935       925       887       851       857       943       815       875       967
dram[3]:        790       911       784       851       752       870       962       874       870       863       910       840       820       843       765       905
dram[4]:        868       844       903       801       941      1014       871       855       909       910       881       853       920       875      1031       868
dram[5]:        936       783       844       747       979       888       936       844       898       896       950      1006       906       902       844       911

Number of Memory Banks Accessed per Memory Operation per Warp (from 0):
0	0	0	0	0	0	0	0	0	0	0	0	0	0	0	0	0	0	0	0	0	0	0	0	0	0	0	0	0	0	0	0	0	0	0	0	0	0	0	0	0	0	0	0	0	0	0	0	0	0	0	0	0	0	0	0	0	0	0	0	0	0	0	0	0	0	0	0	0	0	0	0	0	0	0	0	0	0	0	0	0	0	0	0	0	0	0	0	0	0	0	0	0	0	0	0	
Average # of Memory Banks Accessed per Memory Operation per Warp=-nan

position of mrq chosen
0	0	0	0	0	0	0	0	0	0	0	0	0	0	0	0	

average position of mrq chosen = -nan
Memory Partition 0: 
Cache L2_bank_000:
MSHR contents

Cache L2_bank_001:
MSHR contents

In Dram Latency Queue (total = 0): 
DRAM[0]: 16 bks, busW=4 BL=8 CL=12, tRRD=2 tCCD=6, tRCD=12 tRAS=28 tRP=12 tRC=40
n_cmd=406089 n_nop=374854 n_act=5124 n_pre=5108 n_req=10888 n_rd=18814 n_write=2189 bw_util=0.1034
n_activity=165801 dram_eff=0.2534
bk0: 1072a 395908i bk1: 976a 396551i bk2: 1046a 394330i bk3: 940a 394406i bk4: 1250a 390473i bk5: 1080a 393362i bk6: 1290a 389174i bk7: 1192a 389282i bk8: 1504a 385371i bk9: 1348a 386347i bk10: 1514a 382435i bk11: 1222a 386481i bk12: 1188a 392549i bk13: 1100a 393496i bk14: 1090a 394845i bk15: 1002a 395375i 
dram_util_bins: 0 0 0 0 0 0 0 0 0 0
dram_eff_bins: 0 0 0 0 0 0 0 0 0 0
mrqq: max=16 avg=0.331447
Memory Partition 1: 
Cache L2_bank_002:
MSHR contents

Cache L2_bank_003:
MSHR contents

In Dram Latency Queue (total = 0): 
DRAM[1]: 16 bks, busW=4 BL=8 CL=12, tRRD=2 tCCD=6, tRCD=12 tRAS=28 tRP=12 tRC=40
n_cmd=406089 n_nop=374654 n_act=5201 n_pre=5185 n_req=10924 n_rd=18834 n_write=2215 bw_util=0.1037
n_activity=173092 dram_eff=0.2432
bk0: 1020a 396278i bk1: 880a 397693i bk2: 1054a 394351i bk3: 948a 395483i bk4: 1124a 393414i bk5: 1068a 393815i bk6: 1374a 390099i bk7: 1346a 389338i bk8: 1472a 386319i bk9: 1304a 387854i bk10: 1538a 382399i bk11: 1420a 384293i bk12: 1148a 392434i bk13: 1034a 394878i bk14: 1082a 395558i bk15: 1022a 396244i 
dram_util_bins: 0 0 0 0 0 0 0 0 0 0
dram_eff_bins: 0 0 0 0 0 0 0 0 0 0
mrqq: max=16 avg=0.252684
Memory Partition 2: 
Cache L2_bank_004:
MSHR contents

Cache L2_bank_005:
MSHR contents

In Dram Latency Queue (total = 0): 
DRAM[2]: 16 bks, busW=4 BL=8 CL=12, tRRD=2 tCCD=6, tRCD=12 tRAS=28 tRP=12 tRC=40
n_cmd=406089 n_nop=374149 n_act=5228 n_pre=5212 n_req=11149 n_rd=19196 n_write=2304 bw_util=0.1059
n_activity=167923 dram_eff=0.2561
bk0: 970a 396652i bk1: 1044a 396048i bk2: 950a 395019i bk3: 1076a 392629i bk4: 1182a 391833i bk5: 1260a 390703i bk6: 1206a 390728i bk7: 1382a 387276i bk8: 1394a 386119i bk9: 1480a 383685i bk10: 1390a 384146i bk11: 1546a 382094i bk12: 1108a 392645i bk13: 1156a 392793i bk14: 976a 395783i bk15: 1076a 394669i 
dram_util_bins: 0 0 0 0 0 0 0 0 0 0
dram_eff_bins: 0 0 0 0 0 0 0 0 0 0
mrqq: max=16 avg=0.339561
Memory Partition 3: 
Cache L2_bank_006:
MSHR contents

Cache L2_bank_007:
MSHR contents

In Dram Latency Queue (total = 0): 
DRAM[3]: 16 bks, busW=4 BL=8 CL=12, tRRD=2 tCCD=6, tRCD=12 tRAS=28 tRP=12 tRC=40
n_cmd=406089 n_nop=375373 n_act=5023 n_pre=5007 n_req=10727 n_rd=18530 n_write=2156 bw_util=0.1019
n_activity=169237 dram_eff=0.2445
bk0: 866a 398605i bk1: 1076a 396714i bk2: 948a 394692i bk3: 1014a 394520i bk4: 1100a 394026i bk5: 1238a 392284i bk6: 1300a 390445i bk7: 1278a 390774i bk8: 1280a 387717i bk9: 1462a 385479i bk10: 1344a 386315i bk11: 1368a 385000i bk12: 1056a 394074i bk13: 1236a 392408i bk14: 954a 396851i bk15: 1010a 396859i 
dram_util_bins: 0 0 0 0 0 0 0 0 0 0
dram_eff_bins: 0 0 0 0 0 0 0 0 0 0
mrqq: max=16 avg=0.244917
Memory Partition 4: 
Cache L2_bank_008:
MSHR contents

Cache L2_bank_009:
MSHR contents

In Dram Latency Queue (total = 0): 
DRAM[4]: 16 bks, busW=4 BL=8 CL=12, tRRD=2 tCCD=6, tRCD=12 tRAS=28 tRP=12 tRC=40
n_cmd=406089 n_nop=374591 n_act=5168 n_pre=5152 n_req=10986 n_rd=18938 n_write=2240 bw_util=0.1043
n_activity=167520 dram_eff=0.2528
bk0: 1044a 396149i bk1: 956a 396770i bk2: 1076a 392916i bk3: 944a 395147i bk4: 1134a 392917i bk5: 1090a 393255i bk6: 1332a 389721i bk7: 1288a 389565i bk8: 1486a 385087i bk9: 1372a 385376i bk10: 1544a 381398i bk11: 1360a 382880i bk12: 1164a 391741i bk13: 1062a 394261i bk14: 1108a 393894i bk15: 978a 395885i 
dram_util_bins: 0 0 0 0 0 0 0 0 0 0
dram_eff_bins: 0 0 0 0 0 0 0 0 0 0
mrqq: max=16 avg=0.328551
Memory Partition 5: 
Cache L2_bank_010:
MSHR contents

Cache L2_bank_011:
MSHR contents

In Dram Latency Queue (total = 0): 
DRAM[5]: 16 bks, busW=4 BL=8 CL=12, tRRD=2 tCCD=6, tRCD=12 tRAS=28 tRP=12 tRC=40
n_cmd=406089 n_nop=374592 n_act=5182 n_pre=5166 n_req=10977 n_rd=18886 n_write=2263 bw_util=0.1042
n_activity=171377 dram_eff=0.2468
bk0: 1016a 396819i bk1: 902a 398028i bk2: 1112a 393125i bk3: 1000a 394179i bk4: 1142a 393528i bk5: 1116a 393528i bk6: 1396a 389344i bk7: 1280a 390494i bk8: 1462a 386232i bk9: 1342a 387233i bk10: 1542a 383132i bk11: 1354a 385728i bk12: 1168a 392231i bk13: 1012a 395335i bk14: 1092a 395311i bk15: 950a 397414i 
dram_util_bins: 0 0 0 0 0 0 0 0 0 0
dram_eff_bins: 0 0 0 0 0 0 0 0 0 0
mrqq: max=16 avg=0.237485

========= L2 cache stats =========
L2_cache_bank[0]: Access = 36123, Miss = 4977, Miss_rate = 0.138, Pending_hits = 50, Reservation_fails = 641
L2_cache_bank[1]: Access = 36053, Miss = 4430, Miss_rate = 0.123, Pending_hits = 51, Reservation_fails = 675
L2_cache_bank[2]: Access = 35912, Miss = 4906, Miss_rate = 0.137, Pending_hits = 75, Reservation_fails = 119
L2_cache_bank[3]: Access = 34998, Miss = 4511, Miss_rate = 0.129, Pending_hits = 51, Reservation_fails = 0
L2_cache_bank[4]: Access = 36617, Miss = 4588, Miss_rate = 0.125, Pending_hits = 52, Reservation_fails = 280
L2_cache_bank[5]: Access = 38952, Miss = 5010, Miss_rate = 0.129, Pending_hits = 48, Reservation_fails = 754
L2_cache_bank[6]: Access = 35444, Miss = 4424, Miss_rate = 0.125, Pending_hits = 52, Reservation_fails = 1
L2_cache_bank[7]: Access = 36319, Miss = 4841, Miss_rate = 0.133, Pending_hits = 75, Reservation_fails = 0
L2_cache_bank[8]: Access = 36547, Miss = 4944, Miss_rate = 0.135, Pending_hits = 49, Reservation_fails = 373
L2_cache_bank[9]: Access = 35787, Miss = 4525, Miss_rate = 0.126, Pending_hits = 46, Reservation_fails = 450
L2_cache_bank[10]: Access = 37395, Miss = 4965, Miss_rate = 0.133, Pending_hits = 51, Reservation_fails = 3
L2_cache_bank[11]: Access = 35792, Miss = 4478, Miss_rate = 0.125, Pending_hits = 63, Reservation_fails = 0
L2_total_cache_accesses = 435939
L2_total_cache_misses = 56599
L2_total_cache_miss_rate = 0.1298
L2_total_cache_pending_hits = 663
L2_total_cache_reservation_fails = 3296
L2_total_cache_breakdown:
	L2_cache_stats_breakdown[GLOBAL_ACC_R][HIT] = 147886
	L2_cache_stats_breakdown[GLOBAL_ACC_R][HIT_RESERVED] = 37
	L2_cache_stats_breakdown[GLOBAL_ACC_R][MISS] = 52463
	L2_cache_stats_breakdown[GLOBAL_ACC_R][RESERVATION_FAIL] = 2530
	L2_cache_stats_breakdown[CONST_ACC_R][HIT] = 11
	L2_cache_stats_breakdown[CONST_ACC_R][HIT_RESERVED] = 3
	L2_cache_stats_breakdown[CONST_ACC_R][MISS] = 1
	L2_cache_stats_breakdown[CONST_ACC_R][RESERVATION_FAIL] = 111
	L2_cache_stats_breakdown[GLOBAL_ACC_W][HIT] = 230708
	L2_cache_stats_breakdown[GLOBAL_ACC_W][HIT_RESERVED] = 611
	L2_cache_stats_breakdown[GLOBAL_ACC_W][MISS] = 4129
	L2_cache_stats_breakdown[GLOBAL_ACC_W][RESERVATION_FAIL] = 246
	L2_cache_stats_breakdown[INST_ACC_R][HIT] = 72
	L2_cache_stats_breakdown[INST_ACC_R][HIT_RESERVED] = 12
	L2_cache_stats_breakdown[INST_ACC_R][MISS] = 6
	L2_cache_stats_breakdown[INST_ACC_R][RESERVATION_FAIL] = 409
L2_cache_data_port_util = 0.227
L2_cache_fill_port_util = 0.061

icnt_total_pkts_mem_to_simt=1237873
icnt_total_pkts_simt_to_mem=671649
LD_mem_lat_dist  0 0 0 0 0 0 0 0 0 0 0 0 0 0 0 0 0 0 0 0 0 0 0 0 0 0 0
ST_mem_lat_dist  0 0 0 0 0 0 0 0 0 0 0 0 0 0 0 0 0 0 0 0 0 0 0 0 0 0 0
----------------------------Interconnect-DETAILS--------------------------------
Class 0:
Packet latency average = 10.72
	minimum = 6
	maximum = 32
Network latency average = 10.01
	minimum = 6
	maximum = 27
Slowest packet = 871589
Flit latency average = 8.494
	minimum = 6
	maximum = 23
Slowest flit = 1908687
Fragmentation average = 0
	minimum = 0
	maximum = 0
Injected packet rate average = 0.0170051
	minimum = 0.0128558 (at node 10)
	maximum = 0.020202 (at node 16)
Accepted packet rate average = 0.0170051
	minimum = 0.0128558 (at node 10)
	maximum = 0.020202 (at node 16)
Injected flit rate average = 0.0510152
	minimum = 0.0128558 (at node 10)
	maximum = 0.10101 (at node 16)
Accepted flit rate average= 0.0510152
	minimum = 0.0183655 (at node 15)
	maximum = 0.0918274 (at node 6)
Injected packet length average = 3
Accepted packet length average = 3
Total in-flight flits = 0 (0 measured)
====== Overall Traffic Statistics ======
====== Traffic class 0 ======
Packet latency average = 29.1207 (12 samples)
	minimum = 6 (12 samples)
	maximum = 233.083 (12 samples)
Network latency average = 18.735 (12 samples)
	minimum = 6 (12 samples)
	maximum = 180.75 (12 samples)
Flit latency average = 18.5396 (12 samples)
	minimum = 6 (12 samples)
	maximum = 179 (12 samples)
Fragmentation average = 0.0113073 (12 samples)
	minimum = 0 (12 samples)
	maximum = 69.5 (12 samples)
Injected packet rate average = 0.0598391 (12 samples)
	minimum = 0.042966 (12 samples)
	maximum = 0.134578 (12 samples)
Accepted packet rate average = 0.0598391 (12 samples)
	minimum = 0.042966 (12 samples)
	maximum = 0.134578 (12 samples)
Injected flit rate average = 0.116839 (12 samples)
	minimum = 0.0705762 (12 samples)
	maximum = 0.230035 (12 samples)
Accepted flit rate average = 0.116839 (12 samples)
	minimum = 0.0672615 (12 samples)
	maximum = 0.297034 (12 samples)
Injected packet size average = 1.95255 (12 samples)
Accepted packet size average = 1.95255 (12 samples)
Hops average = 1 (12 samples)
----------------------------END-of-Interconnect-DETAILS-------------------------


gpgpu_simulation_time = 0 days, 0 hrs, 3 min, 9 sec (189 sec)
gpgpu_simulation_rate = 70748 (inst/sec)
gpgpu_simulation_rate = 1627 (cycle/sec)
Kernel Executed 6 times
Result stored in result.txt
