

        *** GPGPU-Sim Simulator Version 3.2.2  [build 0] ***


GPGPU-Sim PTX: simulation mode 0 (can change with PTX_SIM_MODE_FUNC environment variable:
               1=functional simulation only, 0=detailed performance simulator)
GPGPU-Sim: Configuration options:

-network_mode                           1 # Interconnection network mode
-inter_config_file   config_fermi_islip.icnt # Interconnection network config file
-gpgpu_ptx_use_cuobjdump                    1 # Use cuobjdump to extract ptx and sass from binaries
-gpgpu_experimental_lib_support                    0 # Try to extract code from cuda libraries [Broken because of unknown cudaGetExportTable]
-gpgpu_ptx_convert_to_ptxplus                    0 # Convert SASS (native ISA) to ptxplus and run ptxplus
-gpgpu_ptx_force_max_capability                   20 # Force maximum compute capability
-gpgpu_ptx_inst_debug_to_file                    0 # Dump executed instructions' debug information to file
-gpgpu_ptx_inst_debug_file       inst_debug.txt # Executed instructions' debug output file
-gpgpu_ptx_inst_debug_thread_uid                    1 # Thread UID for executed instructions' debug output
-gpgpu_simd_model                       1 # 1 = post-dominator
-gpgpu_shader_core_pipeline              1536:32 # shader core pipeline config, i.e., {<nthread>:<warpsize>}
-gpgpu_tex_cache:l1  4:128:24,L:R:m:N:L,F:128:4,128:2 # per-shader L1 texture cache  (READ-ONLY) config  {<nsets>:<bsize>:<assoc>,<rep>:<wr>:<alloc>:<wr_alloc>,<mshr>:<N>:<merge>,<mq>:<rf>}
-gpgpu_const_cache:l1 64:64:2,L:R:f:N:L,A:2:32,4 # per-shader L1 constant memory cache  (READ-ONLY) config  {<nsets>:<bsize>:<assoc>,<rep>:<wr>:<alloc>:<wr_alloc>,<mshr>:<N>:<merge>,<mq>} 
-gpgpu_cache:il1     4:128:4,L:R:f:N:L,A:2:32,4 # shader L1 instruction cache config  {<nsets>:<bsize>:<assoc>,<rep>:<wr>:<alloc>:<wr_alloc>,<mshr>:<N>:<merge>,<mq>} 
-gpgpu_cache:dl1     32:128:4,L:L:m:N:H,A:32:8,8 # per-shader L1 data cache config  {<nsets>:<bsize>:<assoc>,<rep>:<wr>:<alloc>:<wr_alloc>,<mshr>:<N>:<merge>,<mq> | none}
-gpgpu_cache:dl1PrefL1                 none # per-shader L1 data cache config  {<nsets>:<bsize>:<assoc>,<rep>:<wr>:<alloc>:<wr_alloc>,<mshr>:<N>:<merge>,<mq> | none}
-gpgpu_cache:dl1PreShared                 none # per-shader L1 data cache config  {<nsets>:<bsize>:<assoc>,<rep>:<wr>:<alloc>:<wr_alloc>,<mshr>:<N>:<merge>,<mq> | none}
-gmem_skip_L1D                          0 # global memory access skip L1D cache (implements -Xptxas -dlcm=cg, default=no skip)
-gpgpu_perfect_mem                      0 # enable perfect memory mode (no cache miss)
-n_regfile_gating_group                    4 # group of lanes that should be read/written together)
-gpgpu_clock_gated_reg_file                    0 # enable clock gated reg file for power calculations
-gpgpu_clock_gated_lanes                    0 # enable clock gated lanes for power calculations
-gpgpu_shader_registers                32768 # Number of registers per shader core. Limits number of concurrent CTAs. (default 8192)
-gpgpu_shader_cta                       8 # Maximum number of concurrent CTAs in shader (default 8)
-gpgpu_num_cta_barriers                   16 # Maximum number of named barriers per CTA (default 16)
-gpgpu_n_clusters                      15 # number of processing clusters
-gpgpu_n_cores_per_cluster                    1 # number of simd cores per cluster
-gpgpu_n_cluster_ejection_buffer_size                    8 # number of packets in ejection buffer
-gpgpu_n_ldst_response_buffer_size                    2 # number of response packets in ld/st unit ejection buffer
-gpgpu_shmem_size                   16384 # Size of shared memory per shader core (default 16kB)
-gpgpu_shmem_size                   49152 # Size of shared memory per shader core (default 16kB)
-gpgpu_shmem_size_PrefL1                16384 # Size of shared memory per shader core (default 16kB)
-gpgpu_shmem_size_PrefShared                16384 # Size of shared memory per shader core (default 16kB)
-gpgpu_shmem_num_banks                   32 # Number of banks in the shared memory in each shader core (default 16)
-gpgpu_shmem_limited_broadcast                    0 # Limit shared memory to do one broadcast per cycle (default on)
-gpgpu_shmem_warp_parts                    1 # Number of portions a warp is divided into for shared memory bank conflict check 
-gpgpu_warpdistro_shader                   -1 # Specify which shader core to collect the warp size distribution from
-gpgpu_warp_issue_shader                    0 # Specify which shader core to collect the warp issue distribution from
-gpgpu_local_mem_map                    1 # Mapping from local memory space address to simulated GPU physical address space (default = enabled)
-gpgpu_num_reg_banks                   16 # Number of register banks (default = 8)
-gpgpu_reg_bank_use_warp_id                    0 # Use warp ID in mapping registers to banks (default = off)
-gpgpu_operand_collector_num_units_sp                    6 # number of collector units (default = 4)
-gpgpu_operand_collector_num_units_sfu                    8 # number of collector units (default = 4)
-gpgpu_operand_collector_num_units_mem                    2 # number of collector units (default = 2)
-gpgpu_operand_collector_num_units_gen                    0 # number of collector units (default = 0)
-gpgpu_operand_collector_num_in_ports_sp                    2 # number of collector unit in ports (default = 1)
-gpgpu_operand_collector_num_in_ports_sfu                    1 # number of collector unit in ports (default = 1)
-gpgpu_operand_collector_num_in_ports_mem                    1 # number of collector unit in ports (default = 1)
-gpgpu_operand_collector_num_in_ports_gen                    0 # number of collector unit in ports (default = 0)
-gpgpu_operand_collector_num_out_ports_sp                    2 # number of collector unit in ports (default = 1)
-gpgpu_operand_collector_num_out_ports_sfu                    1 # number of collector unit in ports (default = 1)
-gpgpu_operand_collector_num_out_ports_mem                    1 # number of collector unit in ports (default = 1)
-gpgpu_operand_collector_num_out_ports_gen                    0 # number of collector unit in ports (default = 0)
-gpgpu_coalesce_arch                   13 # Coalescing arch (default = 13, anything else is off for now)
-gpgpu_num_sched_per_core                    2 # Number of warp schedulers per core
-gpgpu_max_insn_issue_per_warp                    1 # Max number of instructions that can be issued per warp in one cycle by scheduler
-gpgpu_simt_core_sim_order                    1 # Select the simulation order of cores in a cluster (0=Fix, 1=Round-Robin)
-gpgpu_pipeline_widths        2,1,1,2,1,1,2 # Pipeline widths ID_OC_SP,ID_OC_SFU,ID_OC_MEM,OC_EX_SP,OC_EX_SFU,OC_EX_MEM,EX_WB
-gpgpu_num_sp_units                     2 # Number of SP units (default=1)
-gpgpu_num_sfu_units                    1 # Number of SF units (default=1)
-gpgpu_num_mem_units                    1 # Number if ldst units (default=1) WARNING: not hooked up to anything
-gpgpu_scheduler                      gto # Scheduler configuration: < lrr | gto | two_level_active > If two_level_active:<num_active_warps>:<inner_prioritization>:<outer_prioritization>For complete list of prioritization values see shader.h enum scheduler_prioritization_typeDefault: gto
-gpgpu_dram_scheduler                    1 # 0 = fifo, 1 = FR-FCFS (defaul)
-gpgpu_dram_partition_queues              8:8:8:8 # i2$:$2d:d2$:$2i
-l2_ideal                               0 # Use a ideal L2 cache that always hit
-gpgpu_cache:dl2     64:128:8,L:B:m:W:L,A:32:4,4:0,32 # unified banked L2 data cache config  {<nsets>:<bsize>:<assoc>,<rep>:<wr>:<alloc>:<wr_alloc>,<mshr>:<N>:<merge>,<mq>}
-gpgpu_cache:dl2_texture_only                    0 # L2 cache used for texture only
-gpgpu_n_mem                            6 # number of memory modules (e.g. memory controllers) in gpu
-gpgpu_n_sub_partition_per_mchannel                    2 # number of memory subpartition in each memory module
-gpgpu_n_mem_per_ctrlr                    2 # number of memory chips per memory controller
-gpgpu_memlatency_stat                   14 # track and display latency statistics 0x2 enables MC, 0x4 enables queue logs
-gpgpu_frfcfs_dram_sched_queue_size                   16 # 0 = unlimited (default); # entries per chip
-gpgpu_dram_return_queue_size                  116 # 0 = unlimited (default); # entries per chip
-gpgpu_dram_buswidth                    4 # default = 4 bytes (8 bytes per cycle at DDR)
-gpgpu_dram_burst_length                    8 # Burst length of each DRAM request (default = 4 data bus cycle)
-dram_data_command_freq_ratio                    4 # Frequency ratio between DRAM data bus and command bus (default = 2 times, i.e. DDR)
-gpgpu_dram_timing_opt nbk=16:CCD=2:RRD=6:RCD=12:RAS=28:RP=12:RC=40: CL=12:WL=4:CDLR=5:WR=12:nbkgrp=4:CCDL=3:RTPL=2 # DRAM timing parameters = {nbk:tCCD:tRRD:tRCD:tRAS:tRP:tRC:CL:WL:tCDLR:tWR:nbkgrp:tCCDL:tRTPL}
-rop_latency                          120 # ROP queue latency (default 85)
-dram_latency                         100 # DRAM latency (default 30)
-gpgpu_mem_addr_mapping dramid@8;00000000.00000000.00000000.00000000.0000RRRR.RRRRRRRR.BBBCCCCB.CCSSSSSS # mapping memory address to dram model {dramid@<start bit>;<memory address map>}
-gpgpu_mem_addr_test                    0 # run sweep test to check address mapping for aliased address
-gpgpu_mem_address_mask                    1 # 0 = old addressing mask, 1 = new addressing mask, 2 = new add. mask + flipped bank sel and chip sel bits
-gpuwattch_xml_file  gpuwattch_gtx480.xml # GPUWattch XML file
-power_simulation_enabled                    1 # Turn on power simulator (1=On, 0=Off)
-power_per_cycle_dump                    0 # Dump detailed power output each cycle
-power_trace_enabled                    0 # produce a file for the power trace (1=On, 0=Off)
-power_trace_zlevel                     6 # Compression level of the power trace output log (0=no comp, 9=highest)
-steady_power_levels_enabled                    0 # produce a file for the steady power levels (1=On, 0=Off)
-steady_state_definition                  8:4 # allowed deviation:number of samples
-gpgpu_max_cycle                        0 # terminates gpu simulation early (0 = no limit)
-gpgpu_max_insn                         0 # terminates gpu simulation early (0 = no limit)
-gpgpu_max_cta                          0 # terminates gpu simulation early (0 = no limit)
-gpgpu_runtime_stat                   500 # display runtime statistics such as dram utilization {<freq>:<flag>}
-liveness_message_freq                    1 # Minimum number of seconds between simulation liveness messages (0 = always print)
-gpgpu_flush_l1_cache                    0 # Flush L1 cache at the end of each kernel call
-gpgpu_flush_l2_cache                    0 # Flush L2 cache at the end of each kernel call
-gpgpu_deadlock_detect                    1 # Stop the simulation at deadlock (1=on (default), 0=off)
-gpgpu_ptx_instruction_classification                    0 # if enabled will classify ptx instruction types per kernel (Max 255 kernels now)
-gpgpu_ptx_sim_mode                     0 # Select between Performance (default) or Functional simulation (1)
-gpgpu_clock_domains 700.0:700.0:700.0:924.0 # Clock Domain Frequencies in MhZ {<Core Clock>:<ICNT Clock>:<L2 Clock>:<DRAM Clock>}
-gpgpu_max_concurrent_kernel                    8 # maximum kernels that can run concurrently on GPU
-gpgpu_cflog_interval                    0 # Interval between each snapshot in control flow logger
-visualizer_enabled                     0 # Turn on visualizer output (1=On, 0=Off)
-visualizer_outputfile                 NULL # Specifies the output log file for visualizer
-visualizer_zlevel                      6 # Compression level of the visualizer output log (0=no comp, 9=highest)
-trace_enabled                          0 # Turn on traces
-trace_components                    none # comma seperated list of traces to enable. Complete list found in trace_streams.tup. Default none
-trace_sampling_core                    0 # The core which is printed using CORE_DPRINTF. Default 0
-trace_sampling_memory_partition                   -1 # The memory partition which is printed using MEMPART_DPRINTF. Default -1 (i.e. all)
-enable_ptx_file_line_stats                    1 # Turn on PTX source line statistic profiling. (1 = On)
-ptx_line_stats_filename gpgpu_inst_stats.txt # Output file for PTX source line statistics.
-save_embedded_ptx                      0 # saves ptx files embedded in binary as <n>.ptx
-keep                                   0 # keep intermediate files created by GPGPU-Sim when interfacing with external programs
-gpgpu_ptx_save_converted_ptxplus                    0 # Saved converted ptxplus to a file
-ptx_opcode_latency_int         4,13,4,5,145 # Opcode latencies for integers <ADD,MAX,MUL,MAD,DIV>Default 1,1,19,25,145
-ptx_opcode_latency_fp          4,13,4,5,39 # Opcode latencies for single precision floating points <ADD,MAX,MUL,MAD,DIV>Default 1,1,1,1,30
-ptx_opcode_latency_dp         8,19,8,8,330 # Opcode latencies for double precision floating points <ADD,MAX,MUL,MAD,DIV>Default 8,8,8,8,335
-ptx_opcode_initiation_int            1,2,2,1,8 # Opcode initiation intervals for integers <ADD,MAX,MUL,MAD,DIV>Default 1,1,4,4,32
-ptx_opcode_initiation_fp            1,2,1,1,4 # Opcode initiation intervals for single precision floating points <ADD,MAX,MUL,MAD,DIV>Default 1,1,1,1,5
-ptx_opcode_initiation_dp         8,16,8,8,130 # Opcode initiation intervals for double precision floating points <ADD,MAX,MUL,MAD,DIV>Default 8,8,8,8,130
DRAM Timing Options:
nbk                                    16 # number of banks
CCD                                     2 # column to column delay
RRD                                     6 # minimal delay between activation of rows in different banks
RCD                                    12 # row to column delay
RAS                                    28 # time needed to activate row
RP                                     12 # time needed to precharge (deactivate) row
RC                                     40 # row cycle time
CDLR                                    5 # switching from write to read (changes tWTR)
WR                                     12 # last data-in to row precharge
CL                                     12 # CAS latency
WL                                      4 # Write latency
nbkgrp                                  4 # number of bank groups
CCDL                                    3 # column to column delay between accesses to different bank groups
RTPL                                    2 # read to precharge delay between accesses to different bank groups
Total number of memory sub partition = 12
addr_dec_mask[CHIP]  = 0000000000000000 	high:64 low:0
addr_dec_mask[BK]    = 000000000000e100 	high:16 low:8
addr_dec_mask[ROW]   = 000000000fff0000 	high:28 low:16
addr_dec_mask[COL]   = 0000000000001eff 	high:13 low:0
addr_dec_mask[BURST] = 000000000000003f 	high:6 low:0
sub_partition_id_mask = 0000000000000100
GPGPU-Sim uArch: clock freqs: 700000000.000000:700000000.000000:700000000.000000:924000000.000000
GPGPU-Sim uArch: clock periods: 0.00000000142857142857:0.00000000142857142857:0.00000000142857142857:0.00000000108225108225
*** Initializing Memory Statistics ***
GPGPU-Sim uArch: interconnect node map (shaderID+MemID to icntID)
GPGPU-Sim uArch: Memory nodes ID start from index: 15
GPGPU-Sim uArch:    0   1   2   3   4
GPGPU-Sim uArch:    5   6   7   8   9
GPGPU-Sim uArch:   10  11  12  13  14
GPGPU-Sim uArch:   15  16  17  18  19
GPGPU-Sim uArch:   20  21  22  23  24
GPGPU-Sim uArch:   25  26
GPGPU-Sim uArch: interconnect node reverse map (icntID to shaderID+MemID)
GPGPU-Sim uArch: Memory nodes start from ID: 15
GPGPU-Sim uArch:    0   1   2   3   4
GPGPU-Sim uArch:    5   6   7   8   9
GPGPU-Sim uArch:   10  11  12  13  14
GPGPU-Sim uArch:   15  16  17  18  19
GPGPU-Sim uArch:   20  21  22  23  24
GPGPU-Sim uArch:   25  26
42f7b457b4f8bc5f243a2d9180567621  /home/scratch/adwait/applications/benchmarks/CUDA/BlackScholes/gpgpu_ptx_sim__BlackScholes
GPGPU-Sim uArch: performance model initialization complete.
GPGPU-Sim PTX: __cudaRegisterFatBinary, fat_cubin_handle = 1, filename=BlackScholes.cu
self exe links to: /home/scratch/adwait/applications/benchmarks/CUDA/BlackScholes/gpgpu_ptx_sim__BlackScholes
Running md5sum using "md5sum /home/scratch/adwait/applications/benchmarks/CUDA/BlackScholes/gpgpu_ptx_sim__BlackScholes "
Running cuobjdump using "$CUDA_INSTALL_PATH/bin/cuobjdump -ptx -elf -sass /home/scratch/adwait/applications/benchmarks/CUDA/BlackScholes/gpgpu_ptx_sim__BlackScholes > _cuobjdump_complete_output_JhEJUS"
Parsing file _cuobjdump_complete_output_JhEJUS
######### cuobjdump parser ########
## Adding new section ELF
Adding arch: sm_20
Adding identifier: BlackScholes.cu
## Adding new section PTX
Adding ptx filename: _cuobjdump_1.ptx
Adding arch: sm_20
Adding identifier: BlackScholes.cu
Done parsing!!!
GPGPU-Sim PTX: __cudaRegisterFunction _Z15BlackScholesGPUPfS_S_S_S_ffi : hostFun 0x0x4050ed, fat_cubin_handle = 1
GPGPU-Sim PTX: instruction assembly for function '_Z15BlackScholesGPUPfS_S_S_S_ffi'...   done.
GPGPU-Sim PTX: finding reconvergence points for '_Z15BlackScholesGPUPfS_S_S_S_ffi'...
GPGPU-Sim PTX: Finding dominators for '_Z15BlackScholesGPUPfS_S_S_S_ffi'...
GPGPU-Sim PTX: Finding immediate dominators for '_Z15BlackScholesGPUPfS_S_S_S_ffi'...
GPGPU-Sim PTX: Finding postdominators for '_Z15BlackScholesGPUPfS_S_S_S_ffi'...
GPGPU-Sim PTX: Finding immediate postdominators for '_Z15BlackScholesGPUPfS_S_S_S_ffi'...
GPGPU-Sim PTX: pre-decoding instructions for '_Z15BlackScholesGPUPfS_S_S_S_ffi'...
GPGPU-Sim PTX: reconvergence points for _Z15BlackScholesGPUPfS_S_S_S_ffi...
GPGPU-Sim PTX:  1 (potential) branch divergence @  PC=0x040 (_1.ptx:76) @%p1 bra $Lt_0_2818;
GPGPU-Sim PTX:    immediate post dominator      @  PC=0x3f8 (_1.ptx:200) exit;
GPGPU-Sim PTX:  2 (potential) branch divergence @  PC=0x3f0 (_1.ptx:197) @%p4 bra $Lt_0_3330;
GPGPU-Sim PTX:    immediate post dominator      @  PC=0x3f8 (_1.ptx:200) exit;
GPGPU-Sim PTX: ... end of reconvergence points for _Z15BlackScholesGPUPfS_S_S_S_ffi
GPGPU-Sim PTX: ... done pre-decoding instructions for '_Z15BlackScholesGPUPfS_S_S_S_ffi'.
GPGPU-Sim PTX: finished parsing EMBEDDED .ptx file _1.ptx
Adding _cuobjdump_1.ptx with cubin handle 1
GPGPU-Sim PTX: extracting embedded .ptx to temporary file "_ptx_qw9K8a"
Running: cat _ptx_qw9K8a | sed 's/.version 1.5/.version 1.4/' | sed 's/, texmode_independent//' | sed 's/\(\.extern \.const\[1\] .b8 \w\+\)\[\]/\1\[1\]/' | sed 's/const\[.\]/const\[0\]/g' > _ptx2_DLmhnt
GPGPU-Sim PTX: generating ptxinfo using "$CUDA_INSTALL_PATH/bin/ptxas --gpu-name=sm_20 -v _ptx2_DLmhnt --output-file  /dev/null 2> _ptx_qw9K8ainfo"
GPGPU-Sim PTX: Kernel '_Z15BlackScholesGPUPfS_S_S_S_ffi' : regs=31, lmem=0, smem=0, cmem=128
GPGPU-Sim PTX: removing ptxinfo using "rm -f _ptx_qw9K8a _ptx2_DLmhnt _ptx_qw9K8ainfo"
GPGPU-Sim PTX: loading globals with explicit initializers... 
GPGPU-Sim PTX: finished loading globals (0 bytes total).
GPGPU-Sim PTX: loading constants with explicit initializers...  done.
Initializing data...
...allocating CPU memory for options.
...allocating GPU memory for options.
...generating input data in CPU mem.
...copying input data to GPU mem.
Data init done.
Executing Black-Scholes GPU kernel (1 iterations)...
GPGPU-Sim: synchronize waiting for inactive GPU simulation
GPGPU-Sim API: Stream Manager State
GPGPU-Sim: detected inactive GPU simulation thread

GPGPU-Sim PTX: cudaLaunch for 0x0x4050ed (mode=performance simulation) on stream 0
GPGPU-Sim PTX: pushing kernel '_Z15BlackScholesGPUPfS_S_S_S_ffi' to stream 0, gridDim= (480,1,1) blockDim = (128,1,1) 
kernel '_Z15BlackScholesGPUPfS_S_S_S_ffi' transfer to GPU hardware scheduler
GPGPU-Sim uArch: Shader 1 bind to kernel 1 '_Z15BlackScholesGPUPfS_S_S_S_ffi'
GPGPU-Sim uArch: CTA/core = 8, limited by: regs cta_limit
GPGPU-Sim uArch: core:  1, cta: 0 initialized @(1,0)
GPGPU-Sim uArch: Shader 2 bind to kernel 1 '_Z15BlackScholesGPUPfS_S_S_S_ffi'
GPGPU-Sim uArch: core:  2, cta: 0 initialized @(1,0)
GPGPU-Sim uArch: Shader 3 bind to kernel 1 '_Z15BlackScholesGPUPfS_S_S_S_ffi'
GPGPU-Sim uArch: core:  3, cta: 0 initialized @(1,0)
GPGPU-Sim uArch: Shader 4 bind to kernel 1 '_Z15BlackScholesGPUPfS_S_S_S_ffi'
GPGPU-Sim uArch: core:  4, cta: 0 initialized @(1,0)
GPGPU-Sim uArch: Shader 5 bind to kernel 1 '_Z15BlackScholesGPUPfS_S_S_S_ffi'
GPGPU-Sim uArch: core:  5, cta: 0 initialized @(1,0)
GPGPU-Sim uArch: Shader 6 bind to kernel 1 '_Z15BlackScholesGPUPfS_S_S_S_ffi'
GPGPU-Sim uArch: core:  6, cta: 0 initialized @(1,0)
GPGPU-Sim uArch: Shader 7 bind to kernel 1 '_Z15BlackScholesGPUPfS_S_S_S_ffi'
GPGPU-Sim uArch: core:  7, cta: 0 initialized @(1,0)
GPGPU-Sim uArch: Shader 8 bind to kernel 1 '_Z15BlackScholesGPUPfS_S_S_S_ffi'
GPGPU-Sim uArch: core:  8, cta: 0 initialized @(1,0)
GPGPU-Sim uArch: Shader 9 bind to kernel 1 '_Z15BlackScholesGPUPfS_S_S_S_ffi'
GPGPU-Sim uArch: core:  9, cta: 0 initialized @(1,0)
GPGPU-Sim uArch: Shader 10 bind to kernel 1 '_Z15BlackScholesGPUPfS_S_S_S_ffi'
GPGPU-Sim uArch: core: 10, cta: 0 initialized @(1,0)
GPGPU-Sim uArch: Shader 11 bind to kernel 1 '_Z15BlackScholesGPUPfS_S_S_S_ffi'
GPGPU-Sim uArch: core: 11, cta: 0 initialized @(1,0)
GPGPU-Sim uArch: Shader 12 bind to kernel 1 '_Z15BlackScholesGPUPfS_S_S_S_ffi'
GPGPU-Sim uArch: core: 12, cta: 0 initialized @(1,0)
GPGPU-Sim uArch: Shader 13 bind to kernel 1 '_Z15BlackScholesGPUPfS_S_S_S_ffi'
GPGPU-Sim uArch: core: 13, cta: 0 initialized @(1,0)
GPGPU-Sim uArch: Shader 14 bind to kernel 1 '_Z15BlackScholesGPUPfS_S_S_S_ffi'
GPGPU-Sim uArch: core: 14, cta: 0 initialized @(1,0)
GPGPU-Sim uArch: Shader 0 bind to kernel 1 '_Z15BlackScholesGPUPfS_S_S_S_ffi'
GPGPU-Sim uArch: core:  0, cta: 0 initialized @(1,0)
GPGPU-Sim uArch: core:  1, cta: 1 initialized @(2,0)
GPGPU-Sim uArch: core:  2, cta: 1 initialized @(2,0)
GPGPU-Sim uArch: core:  3, cta: 1 initialized @(2,0)
GPGPU-Sim uArch: core:  4, cta: 1 initialized @(2,0)
GPGPU-Sim uArch: core:  5, cta: 1 initialized @(2,0)
GPGPU-Sim uArch: core:  6, cta: 1 initialized @(2,0)
GPGPU-Sim uArch: core:  7, cta: 1 initialized @(2,0)
GPGPU-Sim uArch: core:  8, cta: 1 initialized @(2,0)
GPGPU-Sim uArch: core:  9, cta: 1 initialized @(2,0)
GPGPU-Sim uArch: core: 10, cta: 1 initialized @(2,0)
GPGPU-Sim uArch: core: 11, cta: 1 initialized @(2,0)
GPGPU-Sim uArch: core: 12, cta: 1 initialized @(2,0)
GPGPU-Sim uArch: core: 13, cta: 1 initialized @(2,0)
GPGPU-Sim uArch: core: 14, cta: 1 initialized @(2,0)
GPGPU-Sim uArch: core:  0, cta: 1 initialized @(2,0)
GPGPU-Sim uArch: core:  1, cta: 2 initialized @(3,0)
GPGPU-Sim uArch: core:  2, cta: 2 initialized @(3,0)
GPGPU-Sim uArch: core:  3, cta: 2 initialized @(3,0)
GPGPU-Sim uArch: core:  4, cta: 2 initialized @(3,0)
GPGPU-Sim uArch: core:  5, cta: 2 initialized @(3,0)
GPGPU-Sim uArch: core:  6, cta: 2 initialized @(3,0)
GPGPU-Sim uArch: core:  7, cta: 2 initialized @(3,0)
GPGPU-Sim uArch: core:  8, cta: 2 initialized @(3,0)
GPGPU-Sim uArch: core:  9, cta: 2 initialized @(3,0)
GPGPU-Sim uArch: core: 10, cta: 2 initialized @(3,0)
GPGPU-Sim uArch: core: 11, cta: 2 initialized @(3,0)
GPGPU-Sim uArch: core: 12, cta: 2 initialized @(3,0)
GPGPU-Sim uArch: core: 13, cta: 2 initialized @(3,0)
GPGPU-Sim uArch: core: 14, cta: 2 initialized @(3,0)
GPGPU-Sim uArch: core:  0, cta: 2 initialized @(3,0)
GPGPU-Sim uArch: core:  1, cta: 3 initialized @(4,0)
GPGPU-Sim uArch: core:  2, cta: 3 initialized @(4,0)
GPGPU-Sim uArch: core:  3, cta: 3 initialized @(4,0)
GPGPU-Sim uArch: core:  4, cta: 3 initialized @(4,0)
GPGPU-Sim uArch: core:  5, cta: 3 initialized @(4,0)
GPGPU-Sim uArch: core:  6, cta: 3 initialized @(4,0)
GPGPU-Sim uArch: core:  7, cta: 3 initialized @(4,0)
GPGPU-Sim uArch: core:  8, cta: 3 initialized @(4,0)
GPGPU-Sim uArch: core:  9, cta: 3 initialized @(4,0)
GPGPU-Sim uArch: core: 10, cta: 3 initialized @(4,0)
GPGPU-Sim uArch: core: 11, cta: 3 initialized @(4,0)
GPGPU-Sim uArch: core: 12, cta: 3 initialized @(4,0)
GPGPU-Sim uArch: core: 13, cta: 3 initialized @(4,0)
GPGPU-Sim uArch: core: 14, cta: 3 initialized @(4,0)
GPGPU-Sim uArch: core:  0, cta: 3 initialized @(4,0)
GPGPU-Sim uArch: core:  1, cta: 4 initialized @(5,0)
GPGPU-Sim uArch: core:  2, cta: 4 initialized @(5,0)
GPGPU-Sim uArch: core:  3, cta: 4 initialized @(5,0)
GPGPU-Sim uArch: core:  4, cta: 4 initialized @(5,0)
GPGPU-Sim uArch: core:  5, cta: 4 initialized @(5,0)
GPGPU-Sim uArch: core:  6, cta: 4 initialized @(5,0)
GPGPU-Sim uArch: core:  7, cta: 4 initialized @(5,0)
GPGPU-Sim uArch: core:  8, cta: 4 initialized @(5,0)
GPGPU-Sim uArch: core:  9, cta: 4 initialized @(5,0)
GPGPU-Sim uArch: core: 10, cta: 4 initialized @(5,0)
GPGPU-Sim uArch: core: 11, cta: 4 initialized @(5,0)
GPGPU-Sim uArch: core: 12, cta: 4 initialized @(5,0)
GPGPU-Sim uArch: core: 13, cta: 4 initialized @(5,0)
GPGPU-Sim uArch: core: 14, cta: 4 initialized @(5,0)
GPGPU-Sim uArch: core:  0, cta: 4 initialized @(5,0)
GPGPU-Sim uArch: core:  1, cta: 5 initialized @(6,0)
GPGPU-Sim uArch: core:  2, cta: 5 initialized @(6,0)
GPGPU-Sim uArch: core:  3, cta: 5 initialized @(6,0)
GPGPU-Sim uArch: core:  4, cta: 5 initialized @(6,0)
GPGPU-Sim uArch: core:  5, cta: 5 initialized @(6,0)
GPGPU-Sim uArch: core:  6, cta: 5 initialized @(6,0)
GPGPU-Sim uArch: core:  7, cta: 5 initialized @(6,0)
GPGPU-Sim uArch: core:  8, cta: 5 initialized @(6,0)
GPGPU-Sim uArch: core:  9, cta: 5 initialized @(6,0)
GPGPU-Sim uArch: core: 10, cta: 5 initialized @(6,0)
GPGPU-Sim uArch: core: 11, cta: 5 initialized @(6,0)
GPGPU-Sim uArch: core: 12, cta: 5 initialized @(6,0)
GPGPU-Sim uArch: core: 13, cta: 5 initialized @(6,0)
GPGPU-Sim uArch: core: 14, cta: 5 initialized @(6,0)
GPGPU-Sim uArch: core:  0, cta: 5 initialized @(6,0)
GPGPU-Sim uArch: core:  1, cta: 6 initialized @(7,0)
GPGPU-Sim uArch: core:  2, cta: 6 initialized @(7,0)
GPGPU-Sim uArch: core:  3, cta: 6 initialized @(7,0)
GPGPU-Sim uArch: core:  4, cta: 6 initialized @(7,0)
GPGPU-Sim uArch: core:  5, cta: 6 initialized @(7,0)
GPGPU-Sim uArch: core:  6, cta: 6 initialized @(7,0)
GPGPU-Sim uArch: core:  7, cta: 6 initialized @(7,0)
GPGPU-Sim uArch: core:  8, cta: 6 initialized @(7,0)
GPGPU-Sim uArch: core:  9, cta: 6 initialized @(7,0)
GPGPU-Sim uArch: core: 10, cta: 6 initialized @(7,0)
GPGPU-Sim uArch: core: 11, cta: 6 initialized @(7,0)
GPGPU-Sim uArch: core: 12, cta: 6 initialized @(7,0)
GPGPU-Sim uArch: core: 13, cta: 6 initialized @(7,0)
GPGPU-Sim uArch: core: 14, cta: 6 initialized @(7,0)
GPGPU-Sim uArch: core:  0, cta: 6 initialized @(7,0)
GPGPU-Sim uArch: core:  1, cta: 7 initialized @(8,0)
GPGPU-Sim uArch: core:  2, cta: 7 initialized @(8,0)
GPGPU-Sim uArch: core:  3, cta: 7 initialized @(8,0)
GPGPU-Sim uArch: core:  4, cta: 7 initialized @(8,0)
GPGPU-Sim uArch: core:  5, cta: 7 initialized @(8,0)
GPGPU-Sim uArch: core:  6, cta: 7 initialized @(8,0)
GPGPU-Sim uArch: core:  7, cta: 7 initialized @(8,0)
GPGPU-Sim uArch: core:  8, cta: 7 initialized @(8,0)
GPGPU-Sim uArch: core:  9, cta: 7 initialized @(8,0)
GPGPU-Sim uArch: core: 10, cta: 7 initialized @(8,0)
GPGPU-Sim uArch: core: 11, cta: 7 initialized @(8,0)
GPGPU-Sim uArch: core: 12, cta: 7 initialized @(8,0)
GPGPU-Sim uArch: core: 13, cta: 7 initialized @(8,0)
GPGPU-Sim uArch: core: 14, cta: 7 initialized @(8,0)
GPGPU-Sim uArch: core:  0, cta: 7 initialized @(8,0)
GPGPU-Sim PTX: 100000 instructions simulated : ctaid=(111,0,0) tid=(63,0,0)
GPGPU-Sim uArch: cycles simulated: 500  inst.: 92160 (ipc=184.3) sim_rate=92160 (inst/sec) elapsed = 0:0:00:01 / Mon Apr 15 15:37:50 2019
GPGPU-Sim PTX: 200000 instructions simulated : ctaid=(42,0,0) tid=(127,0,0)
GPGPU-Sim PTX: 300000 instructions simulated : ctaid=(52,0,0) tid=(95,0,0)
GPGPU-Sim PTX: 400000 instructions simulated : ctaid=(103,0,0) tid=(31,0,0)
GPGPU-Sim PTX: 500000 instructions simulated : ctaid=(104,0,0) tid=(127,0,0)
GPGPU-Sim uArch: cycles simulated: 2000  inst.: 475232 (ipc=237.6) sim_rate=237616 (inst/sec) elapsed = 0:0:00:02 / Mon Apr 15 15:37:51 2019
GPGPU-Sim PTX: 600000 instructions simulated : ctaid=(100,0,0) tid=(31,0,0)
GPGPU-Sim PTX: 700000 instructions simulated : ctaid=(61,0,0) tid=(95,0,0)
GPGPU-Sim PTX: 800000 instructions simulated : ctaid=(48,0,0) tid=(31,0,0)
GPGPU-Sim PTX: 900000 instructions simulated : ctaid=(102,0,0) tid=(31,0,0)
GPGPU-Sim PTX: 1000000 instructions simulated : ctaid=(89,0,0) tid=(63,0,0)
GPGPU-Sim PTX: 1100000 instructions simulated : ctaid=(64,0,0) tid=(31,0,0)
GPGPU-Sim PTX: 1200000 instructions simulated : ctaid=(18,0,0) tid=(95,0,0)
GPGPU-Sim PTX: 1300000 instructions simulated : ctaid=(22,0,0) tid=(63,0,0)
GPGPU-Sim PTX: 1400000 instructions simulated : ctaid=(94,0,0) tid=(31,0,0)
GPGPU-Sim PTX: 1500000 instructions simulated : ctaid=(39,0,0) tid=(63,0,0)
GPGPU-Sim PTX: 1600000 instructions simulated : ctaid=(77,0,0) tid=(127,0,0)
GPGPU-Sim uArch: cycles simulated: 4000  inst.: 1610784 (ipc=402.7) sim_rate=536928 (inst/sec) elapsed = 0:0:00:03 / Mon Apr 15 15:37:52 2019
GPGPU-Sim PTX: 1700000 instructions simulated : ctaid=(117,0,0) tid=(31,0,0)
GPGPU-Sim PTX: 1800000 instructions simulated : ctaid=(96,0,0) tid=(63,0,0)
GPGPU-Sim PTX: 1900000 instructions simulated : ctaid=(33,0,0) tid=(127,0,0)
GPGPU-Sim PTX: 2000000 instructions simulated : ctaid=(5,0,0) tid=(127,0,0)
GPGPU-Sim PTX: 2100000 instructions simulated : ctaid=(39,0,0) tid=(31,0,0)
GPGPU-Sim PTX: 2200000 instructions simulated : ctaid=(35,0,0) tid=(31,0,0)
GPGPU-Sim uArch: cycles simulated: 5500  inst.: 2189440 (ipc=398.1) sim_rate=547360 (inst/sec) elapsed = 0:0:00:04 / Mon Apr 15 15:37:53 2019
GPGPU-Sim PTX: 2300000 instructions simulated : ctaid=(69,0,0) tid=(95,0,0)
GPGPU-Sim PTX: 2400000 instructions simulated : ctaid=(45,0,0) tid=(95,0,0)
GPGPU-Sim PTX: 2500000 instructions simulated : ctaid=(47,0,0) tid=(31,0,0)
GPGPU-Sim PTX: 2600000 instructions simulated : ctaid=(72,0,0) tid=(95,0,0)
GPGPU-Sim PTX: 2700000 instructions simulated : ctaid=(93,0,0) tid=(31,0,0)
GPGPU-Sim PTX: 2800000 instructions simulated : ctaid=(48,0,0) tid=(95,0,0)
GPGPU-Sim uArch: cycles simulated: 6500  inst.: 2855680 (ipc=439.3) sim_rate=571136 (inst/sec) elapsed = 0:0:00:05 / Mon Apr 15 15:37:54 2019
GPGPU-Sim PTX: 2900000 instructions simulated : ctaid=(93,0,0) tid=(31,0,0)
GPGPU-Sim PTX: 3000000 instructions simulated : ctaid=(7,0,0) tid=(63,0,0)
GPGPU-Sim PTX: 3100000 instructions simulated : ctaid=(96,0,0) tid=(127,0,0)
GPGPU-Sim PTX: 3200000 instructions simulated : ctaid=(66,0,0) tid=(127,0,0)
GPGPU-Sim PTX: 3300000 instructions simulated : ctaid=(79,0,0) tid=(63,0,0)
GPGPU-Sim PTX: 3400000 instructions simulated : ctaid=(15,0,0) tid=(63,0,0)
GPGPU-Sim PTX: 3500000 instructions simulated : ctaid=(21,0,0) tid=(95,0,0)
GPGPU-Sim PTX: 3600000 instructions simulated : ctaid=(66,0,0) tid=(31,0,0)
GPGPU-Sim PTX: 3700000 instructions simulated : ctaid=(37,0,0) tid=(31,0,0)
GPGPU-Sim uArch: cycles simulated: 8000  inst.: 3721600 (ipc=465.2) sim_rate=620266 (inst/sec) elapsed = 0:0:00:06 / Mon Apr 15 15:37:55 2019
GPGPU-Sim PTX: 3800000 instructions simulated : ctaid=(52,0,0) tid=(63,0,0)
GPGPU-Sim PTX: 3900000 instructions simulated : ctaid=(41,0,0) tid=(127,0,0)
GPGPU-Sim PTX: 4000000 instructions simulated : ctaid=(45,0,0) tid=(127,0,0)
GPGPU-Sim PTX: 4100000 instructions simulated : ctaid=(57,0,0) tid=(63,0,0)
GPGPU-Sim PTX: 4200000 instructions simulated : ctaid=(11,0,0) tid=(127,0,0)
GPGPU-Sim PTX: 4300000 instructions simulated : ctaid=(48,0,0) tid=(127,0,0)
GPGPU-Sim PTX: 4400000 instructions simulated : ctaid=(83,0,0) tid=(95,0,0)
GPGPU-Sim PTX: 4500000 instructions simulated : ctaid=(34,0,0) tid=(95,0,0)
GPGPU-Sim uArch: cycles simulated: 9500  inst.: 4536800 (ipc=477.6) sim_rate=648114 (inst/sec) elapsed = 0:0:00:07 / Mon Apr 15 15:37:56 2019
GPGPU-Sim PTX: 4600000 instructions simulated : ctaid=(61,0,0) tid=(127,0,0)
GPGPU-Sim PTX: 4700000 instructions simulated : ctaid=(32,0,0) tid=(31,0,0)
GPGPU-Sim PTX: 4800000 instructions simulated : ctaid=(41,0,0) tid=(31,0,0)
GPGPU-Sim PTX: 4900000 instructions simulated : ctaid=(8,0,0) tid=(127,0,0)
GPGPU-Sim PTX: 5000000 instructions simulated : ctaid=(101,0,0) tid=(95,0,0)
GPGPU-Sim PTX: 5100000 instructions simulated : ctaid=(69,0,0) tid=(127,0,0)
GPGPU-Sim PTX: 5200000 instructions simulated : ctaid=(99,0,0) tid=(31,0,0)
GPGPU-Sim PTX: 5300000 instructions simulated : ctaid=(7,0,0) tid=(63,0,0)
GPGPU-Sim PTX: 5400000 instructions simulated : ctaid=(19,0,0) tid=(95,0,0)
GPGPU-Sim uArch: cycles simulated: 11000  inst.: 5418944 (ipc=492.6) sim_rate=677368 (inst/sec) elapsed = 0:0:00:08 / Mon Apr 15 15:37:57 2019
GPGPU-Sim PTX: 5500000 instructions simulated : ctaid=(104,0,0) tid=(127,0,0)
GPGPU-Sim PTX: 5600000 instructions simulated : ctaid=(73,0,0) tid=(63,0,0)
GPGPU-Sim PTX: 5700000 instructions simulated : ctaid=(54,0,0) tid=(127,0,0)
GPGPU-Sim PTX: 5800000 instructions simulated : ctaid=(29,0,0) tid=(95,0,0)
GPGPU-Sim PTX: 5900000 instructions simulated : ctaid=(36,0,0) tid=(127,0,0)
GPGPU-Sim PTX: 6000000 instructions simulated : ctaid=(24,0,0) tid=(127,0,0)
GPGPU-Sim PTX: 6100000 instructions simulated : ctaid=(20,0,0) tid=(31,0,0)
GPGPU-Sim PTX: 6200000 instructions simulated : ctaid=(7,0,0) tid=(31,0,0)
GPGPU-Sim PTX: 6300000 instructions simulated : ctaid=(32,0,0) tid=(95,0,0)
GPGPU-Sim uArch: cycles simulated: 12500  inst.: 6326880 (ipc=506.2) sim_rate=702986 (inst/sec) elapsed = 0:0:00:09 / Mon Apr 15 15:37:58 2019
GPGPU-Sim PTX: 6400000 instructions simulated : ctaid=(112,0,0) tid=(63,0,0)
GPGPU-Sim PTX: 6500000 instructions simulated : ctaid=(26,0,0) tid=(31,0,0)
GPGPU-Sim PTX: 6600000 instructions simulated : ctaid=(19,0,0) tid=(95,0,0)
GPGPU-Sim PTX: 6700000 instructions simulated : ctaid=(116,0,0) tid=(95,0,0)
GPGPU-Sim PTX: 6800000 instructions simulated : ctaid=(51,0,0) tid=(127,0,0)
GPGPU-Sim PTX: 6900000 instructions simulated : ctaid=(1,0,0) tid=(95,0,0)
GPGPU-Sim uArch: cycles simulated: 13500  inst.: 6948864 (ipc=514.7) sim_rate=694886 (inst/sec) elapsed = 0:0:00:10 / Mon Apr 15 15:37:59 2019
GPGPU-Sim PTX: 7000000 instructions simulated : ctaid=(119,0,0) tid=(95,0,0)
GPGPU-Sim PTX: 7100000 instructions simulated : ctaid=(69,0,0) tid=(31,0,0)
GPGPU-Sim PTX: 7200000 instructions simulated : ctaid=(105,0,0) tid=(31,0,0)
GPGPU-Sim PTX: 7300000 instructions simulated : ctaid=(95,0,0) tid=(95,0,0)
GPGPU-Sim PTX: 7400000 instructions simulated : ctaid=(15,0,0) tid=(95,0,0)
GPGPU-Sim PTX: 7500000 instructions simulated : ctaid=(10,0,0) tid=(31,0,0)
GPGPU-Sim PTX: 7600000 instructions simulated : ctaid=(68,0,0) tid=(31,0,0)
GPGPU-Sim PTX: 7700000 instructions simulated : ctaid=(7,0,0) tid=(63,0,0)
GPGPU-Sim PTX: 7800000 instructions simulated : ctaid=(13,0,0) tid=(95,0,0)
GPGPU-Sim PTX: 7900000 instructions simulated : ctaid=(57,0,0) tid=(63,0,0)
GPGPU-Sim uArch: cycles simulated: 15000  inst.: 7876256 (ipc=525.1) sim_rate=716023 (inst/sec) elapsed = 0:0:00:11 / Mon Apr 15 15:38:00 2019
GPGPU-Sim PTX: 8000000 instructions simulated : ctaid=(5,0,0) tid=(127,0,0)
GPGPU-Sim PTX: 8100000 instructions simulated : ctaid=(32,0,0) tid=(127,0,0)
GPGPU-Sim PTX: 8200000 instructions simulated : ctaid=(14,0,0) tid=(95,0,0)
GPGPU-Sim PTX: 8300000 instructions simulated : ctaid=(88,0,0) tid=(31,0,0)
GPGPU-Sim PTX: 8400000 instructions simulated : ctaid=(12,0,0) tid=(31,0,0)
GPGPU-Sim PTX: 8500000 instructions simulated : ctaid=(41,0,0) tid=(127,0,0)
GPGPU-Sim uArch: cycles simulated: 16000  inst.: 8499104 (ipc=531.2) sim_rate=708258 (inst/sec) elapsed = 0:0:00:12 / Mon Apr 15 15:38:01 2019
GPGPU-Sim PTX: 8600000 instructions simulated : ctaid=(68,0,0) tid=(31,0,0)
GPGPU-Sim PTX: 8700000 instructions simulated : ctaid=(23,0,0) tid=(127,0,0)
GPGPU-Sim PTX: 8800000 instructions simulated : ctaid=(12,0,0) tid=(63,0,0)
GPGPU-Sim PTX: 8900000 instructions simulated : ctaid=(36,0,0) tid=(95,0,0)
GPGPU-Sim PTX: 9000000 instructions simulated : ctaid=(48,0,0) tid=(95,0,0)
GPGPU-Sim PTX: 9100000 instructions simulated : ctaid=(81,0,0) tid=(63,0,0)
GPGPU-Sim PTX: 9200000 instructions simulated : ctaid=(58,0,0) tid=(127,0,0)
GPGPU-Sim PTX: 9300000 instructions simulated : ctaid=(28,0,0) tid=(31,0,0)
GPGPU-Sim PTX: 9400000 instructions simulated : ctaid=(35,0,0) tid=(31,0,0)
GPGPU-Sim uArch: cycles simulated: 17500  inst.: 9418144 (ipc=538.2) sim_rate=724472 (inst/sec) elapsed = 0:0:00:13 / Mon Apr 15 15:38:02 2019
GPGPU-Sim PTX: 9500000 instructions simulated : ctaid=(1,0,0) tid=(63,0,0)
GPGPU-Sim PTX: 9600000 instructions simulated : ctaid=(20,0,0) tid=(63,0,0)
GPGPU-Sim PTX: 9700000 instructions simulated : ctaid=(56,0,0) tid=(127,0,0)
GPGPU-Sim PTX: 9800000 instructions simulated : ctaid=(74,0,0) tid=(31,0,0)
GPGPU-Sim PTX: 9900000 instructions simulated : ctaid=(5,0,0) tid=(127,0,0)
GPGPU-Sim PTX: 10000000 instructions simulated : ctaid=(76,0,0) tid=(63,0,0)
GPGPU-Sim uArch: cycles simulated: 18500  inst.: 10018752 (ipc=541.6) sim_rate=715625 (inst/sec) elapsed = 0:0:00:14 / Mon Apr 15 15:38:03 2019
GPGPU-Sim PTX: 10100000 instructions simulated : ctaid=(45,0,0) tid=(95,0,0)
GPGPU-Sim PTX: 10200000 instructions simulated : ctaid=(55,0,0) tid=(31,0,0)
GPGPU-Sim PTX: 10300000 instructions simulated : ctaid=(1,0,0) tid=(127,0,0)
GPGPU-Sim PTX: 10400000 instructions simulated : ctaid=(17,0,0) tid=(127,0,0)
GPGPU-Sim PTX: 10500000 instructions simulated : ctaid=(74,0,0) tid=(95,0,0)
GPGPU-Sim PTX: 10600000 instructions simulated : ctaid=(86,0,0) tid=(31,0,0)
GPGPU-Sim PTX: 10700000 instructions simulated : ctaid=(35,0,0) tid=(127,0,0)
GPGPU-Sim PTX: 10800000 instructions simulated : ctaid=(88,0,0) tid=(31,0,0)
GPGPU-Sim PTX: 10900000 instructions simulated : ctaid=(32,0,0) tid=(127,0,0)
GPGPU-Sim uArch: cycles simulated: 20000  inst.: 10903744 (ipc=545.2) sim_rate=726916 (inst/sec) elapsed = 0:0:00:15 / Mon Apr 15 15:38:04 2019
GPGPU-Sim PTX: 11000000 instructions simulated : ctaid=(31,0,0) tid=(95,0,0)
GPGPU-Sim PTX: 11100000 instructions simulated : ctaid=(22,0,0) tid=(95,0,0)
GPGPU-Sim PTX: 11200000 instructions simulated : ctaid=(69,0,0) tid=(95,0,0)
GPGPU-Sim PTX: 11300000 instructions simulated : ctaid=(37,0,0) tid=(63,0,0)
GPGPU-Sim PTX: 11400000 instructions simulated : ctaid=(27,0,0) tid=(127,0,0)
GPGPU-Sim PTX: 11500000 instructions simulated : ctaid=(5,0,0) tid=(31,0,0)
GPGPU-Sim uArch: cycles simulated: 21000  inst.: 11508608 (ipc=548.0) sim_rate=719288 (inst/sec) elapsed = 0:0:00:16 / Mon Apr 15 15:38:05 2019
GPGPU-Sim PTX: 11600000 instructions simulated : ctaid=(56,0,0) tid=(95,0,0)
GPGPU-Sim PTX: 11700000 instructions simulated : ctaid=(104,0,0) tid=(63,0,0)
GPGPU-Sim PTX: 11800000 instructions simulated : ctaid=(55,0,0) tid=(95,0,0)
GPGPU-Sim PTX: 11900000 instructions simulated : ctaid=(20,0,0) tid=(95,0,0)
GPGPU-Sim PTX: 12000000 instructions simulated : ctaid=(24,0,0) tid=(127,0,0)
GPGPU-Sim PTX: 12100000 instructions simulated : ctaid=(59,0,0) tid=(127,0,0)
GPGPU-Sim PTX: 12200000 instructions simulated : ctaid=(46,0,0) tid=(127,0,0)
GPGPU-Sim PTX: 12300000 instructions simulated : ctaid=(62,0,0) tid=(95,0,0)
GPGPU-Sim uArch: cycles simulated: 22500  inst.: 12361408 (ipc=549.4) sim_rate=727141 (inst/sec) elapsed = 0:0:00:17 / Mon Apr 15 15:38:06 2019
GPGPU-Sim PTX: 12400000 instructions simulated : ctaid=(43,0,0) tid=(127,0,0)
GPGPU-Sim PTX: 12500000 instructions simulated : ctaid=(6,0,0) tid=(31,0,0)
GPGPU-Sim PTX: 12600000 instructions simulated : ctaid=(26,0,0) tid=(127,0,0)
GPGPU-Sim PTX: 12700000 instructions simulated : ctaid=(5,0,0) tid=(95,0,0)
GPGPU-Sim PTX: 12800000 instructions simulated : ctaid=(62,0,0) tid=(127,0,0)
GPGPU-Sim PTX: 12900000 instructions simulated : ctaid=(87,0,0) tid=(95,0,0)
GPGPU-Sim PTX: 13000000 instructions simulated : ctaid=(84,0,0) tid=(63,0,0)
GPGPU-Sim PTX: 13100000 instructions simulated : ctaid=(48,0,0) tid=(95,0,0)
GPGPU-Sim PTX: 13200000 instructions simulated : ctaid=(19,0,0) tid=(95,0,0)
GPGPU-Sim uArch: cycles simulated: 24000  inst.: 13257248 (ipc=552.4) sim_rate=736513 (inst/sec) elapsed = 0:0:00:18 / Mon Apr 15 15:38:07 2019
GPGPU-Sim PTX: 13300000 instructions simulated : ctaid=(35,0,0) tid=(127,0,0)
GPGPU-Sim PTX: 13400000 instructions simulated : ctaid=(41,0,0) tid=(95,0,0)
GPGPU-Sim PTX: 13500000 instructions simulated : ctaid=(45,0,0) tid=(127,0,0)
GPGPU-Sim PTX: 13600000 instructions simulated : ctaid=(46,0,0) tid=(95,0,0)
GPGPU-Sim PTX: 13700000 instructions simulated : ctaid=(6,0,0) tid=(95,0,0)
GPGPU-Sim PTX: 13800000 instructions simulated : ctaid=(7,0,0) tid=(63,0,0)
GPGPU-Sim PTX: 13900000 instructions simulated : ctaid=(104,0,0) tid=(31,0,0)
GPGPU-Sim PTX: 14000000 instructions simulated : ctaid=(65,0,0) tid=(31,0,0)
GPGPU-Sim PTX: 14100000 instructions simulated : ctaid=(104,0,0) tid=(127,0,0)
GPGPU-Sim uArch: cycles simulated: 25500  inst.: 14157024 (ipc=555.2) sim_rate=745106 (inst/sec) elapsed = 0:0:00:19 / Mon Apr 15 15:38:08 2019
GPGPU-Sim PTX: 14200000 instructions simulated : ctaid=(46,0,0) tid=(63,0,0)
GPGPU-Sim PTX: 14300000 instructions simulated : ctaid=(30,0,0) tid=(127,0,0)
GPGPU-Sim PTX: 14400000 instructions simulated : ctaid=(82,0,0) tid=(127,0,0)
GPGPU-Sim PTX: 14500000 instructions simulated : ctaid=(74,0,0) tid=(63,0,0)
GPGPU-Sim PTX: 14600000 instructions simulated : ctaid=(81,0,0) tid=(31,0,0)
GPGPU-Sim PTX: 14700000 instructions simulated : ctaid=(2,0,0) tid=(63,0,0)
GPGPU-Sim PTX: 14800000 instructions simulated : ctaid=(18,0,0) tid=(95,0,0)
GPGPU-Sim PTX: 14900000 instructions simulated : ctaid=(18,0,0) tid=(63,0,0)
GPGPU-Sim PTX: 15000000 instructions simulated : ctaid=(49,0,0) tid=(127,0,0)
GPGPU-Sim uArch: cycles simulated: 27000  inst.: 15050464 (ipc=557.4) sim_rate=752523 (inst/sec) elapsed = 0:0:00:20 / Mon Apr 15 15:38:09 2019
GPGPU-Sim PTX: 15100000 instructions simulated : ctaid=(38,0,0) tid=(95,0,0)
GPGPU-Sim PTX: 15200000 instructions simulated : ctaid=(30,0,0) tid=(127,0,0)
GPGPU-Sim PTX: 15300000 instructions simulated : ctaid=(83,0,0) tid=(63,0,0)
GPGPU-Sim PTX: 15400000 instructions simulated : ctaid=(101,0,0) tid=(31,0,0)
GPGPU-Sim PTX: 15500000 instructions simulated : ctaid=(11,0,0) tid=(31,0,0)
GPGPU-Sim PTX: 15600000 instructions simulated : ctaid=(60,0,0) tid=(95,0,0)
GPGPU-Sim uArch: cycles simulated: 28000  inst.: 15638976 (ipc=558.5) sim_rate=744713 (inst/sec) elapsed = 0:0:00:21 / Mon Apr 15 15:38:10 2019
GPGPU-Sim PTX: 15700000 instructions simulated : ctaid=(37,0,0) tid=(95,0,0)
GPGPU-Sim PTX: 15800000 instructions simulated : ctaid=(73,0,0) tid=(31,0,0)
GPGPU-Sim PTX: 15900000 instructions simulated : ctaid=(57,0,0) tid=(127,0,0)
GPGPU-Sim PTX: 16000000 instructions simulated : ctaid=(80,0,0) tid=(31,0,0)
GPGPU-Sim PTX: 16100000 instructions simulated : ctaid=(69,0,0) tid=(31,0,0)
GPGPU-Sim PTX: 16200000 instructions simulated : ctaid=(115,0,0) tid=(63,0,0)
GPGPU-Sim PTX: 16300000 instructions simulated : ctaid=(11,0,0) tid=(95,0,0)
GPGPU-Sim PTX: 16400000 instructions simulated : ctaid=(76,0,0) tid=(63,0,0)
GPGPU-Sim PTX: 16500000 instructions simulated : ctaid=(58,0,0) tid=(63,0,0)
GPGPU-Sim uArch: cycles simulated: 29500  inst.: 16515904 (ipc=559.9) sim_rate=750722 (inst/sec) elapsed = 0:0:00:22 / Mon Apr 15 15:38:11 2019
GPGPU-Sim PTX: 16600000 instructions simulated : ctaid=(71,0,0) tid=(127,0,0)
GPGPU-Sim PTX: 16700000 instructions simulated : ctaid=(10,0,0) tid=(95,0,0)
GPGPU-Sim PTX: 16800000 instructions simulated : ctaid=(6,0,0) tid=(127,0,0)
GPGPU-Sim PTX: 16900000 instructions simulated : ctaid=(13,0,0) tid=(31,0,0)
GPGPU-Sim PTX: 17000000 instructions simulated : ctaid=(1,0,0) tid=(63,0,0)
GPGPU-Sim PTX: 17100000 instructions simulated : ctaid=(38,0,0) tid=(31,0,0)
GPGPU-Sim PTX: 17200000 instructions simulated : ctaid=(60,0,0) tid=(127,0,0)
GPGPU-Sim PTX: 17300000 instructions simulated : ctaid=(42,0,0) tid=(63,0,0)
GPGPU-Sim PTX: 17400000 instructions simulated : ctaid=(18,0,0) tid=(31,0,0)
GPGPU-Sim uArch: cycles simulated: 31000  inst.: 17373184 (ipc=560.4) sim_rate=755355 (inst/sec) elapsed = 0:0:00:23 / Mon Apr 15 15:38:12 2019
GPGPU-Sim PTX: 17500000 instructions simulated : ctaid=(46,0,0) tid=(95,0,0)
GPGPU-Sim PTX: 17600000 instructions simulated : ctaid=(34,0,0) tid=(95,0,0)
GPGPU-Sim PTX: 17700000 instructions simulated : ctaid=(72,0,0) tid=(127,0,0)
GPGPU-Sim PTX: 17800000 instructions simulated : ctaid=(8,0,0) tid=(127,0,0)
GPGPU-Sim PTX: 17900000 instructions simulated : ctaid=(24,0,0) tid=(63,0,0)
GPGPU-Sim PTX: 18000000 instructions simulated : ctaid=(59,0,0) tid=(31,0,0)
GPGPU-Sim PTX: 18100000 instructions simulated : ctaid=(50,0,0) tid=(63,0,0)
GPGPU-Sim PTX: 18200000 instructions simulated : ctaid=(79,0,0) tid=(31,0,0)
GPGPU-Sim uArch: cycles simulated: 32500  inst.: 18251136 (ipc=561.6) sim_rate=760464 (inst/sec) elapsed = 0:0:00:24 / Mon Apr 15 15:38:13 2019
GPGPU-Sim PTX: 18300000 instructions simulated : ctaid=(104,0,0) tid=(95,0,0)
GPGPU-Sim PTX: 18400000 instructions simulated : ctaid=(0,0,0) tid=(95,0,0)
GPGPU-Sim PTX: 18500000 instructions simulated : ctaid=(71,0,0) tid=(127,0,0)
GPGPU-Sim PTX: 18600000 instructions simulated : ctaid=(42,0,0) tid=(31,0,0)
GPGPU-Sim PTX: 18700000 instructions simulated : ctaid=(27,0,0) tid=(31,0,0)
GPGPU-Sim PTX: 18800000 instructions simulated : ctaid=(75,0,0) tid=(31,0,0)
GPGPU-Sim PTX: 18900000 instructions simulated : ctaid=(58,0,0) tid=(95,0,0)
GPGPU-Sim PTX: 19000000 instructions simulated : ctaid=(6,0,0) tid=(95,0,0)
GPGPU-Sim PTX: 19100000 instructions simulated : ctaid=(69,0,0) tid=(95,0,0)
GPGPU-Sim uArch: cycles simulated: 34000  inst.: 19142016 (ipc=563.0) sim_rate=765680 (inst/sec) elapsed = 0:0:00:25 / Mon Apr 15 15:38:14 2019
GPGPU-Sim PTX: 19200000 instructions simulated : ctaid=(92,0,0) tid=(31,0,0)
GPGPU-Sim PTX: 19300000 instructions simulated : ctaid=(88,0,0) tid=(63,0,0)
GPGPU-Sim PTX: 19400000 instructions simulated : ctaid=(34,0,0) tid=(95,0,0)
GPGPU-Sim PTX: 19500000 instructions simulated : ctaid=(86,0,0) tid=(63,0,0)
GPGPU-Sim PTX: 19600000 instructions simulated : ctaid=(31,0,0) tid=(127,0,0)
GPGPU-Sim PTX: 19700000 instructions simulated : ctaid=(16,0,0) tid=(95,0,0)
GPGPU-Sim uArch: cycles simulated: 35000  inst.: 19729280 (ipc=563.7) sim_rate=758818 (inst/sec) elapsed = 0:0:00:26 / Mon Apr 15 15:38:15 2019
GPGPU-Sim PTX: 19800000 instructions simulated : ctaid=(63,0,0) tid=(95,0,0)
GPGPU-Sim PTX: 19900000 instructions simulated : ctaid=(1,0,0) tid=(31,0,0)
GPGPU-Sim PTX: 20000000 instructions simulated : ctaid=(44,0,0) tid=(31,0,0)
GPGPU-Sim PTX: 20100000 instructions simulated : ctaid=(25,0,0) tid=(31,0,0)
GPGPU-Sim PTX: 20200000 instructions simulated : ctaid=(51,0,0) tid=(31,0,0)
GPGPU-Sim PTX: 20300000 instructions simulated : ctaid=(21,0,0) tid=(63,0,0)
GPGPU-Sim PTX: 20400000 instructions simulated : ctaid=(15,0,0) tid=(63,0,0)
GPGPU-Sim PTX: 20500000 instructions simulated : ctaid=(85,0,0) tid=(63,0,0)
GPGPU-Sim PTX: 20600000 instructions simulated : ctaid=(14,0,0) tid=(95,0,0)
GPGPU-Sim uArch: cycles simulated: 36500  inst.: 20586304 (ipc=564.0) sim_rate=762455 (inst/sec) elapsed = 0:0:00:27 / Mon Apr 15 15:38:16 2019
GPGPU-Sim PTX: 20700000 instructions simulated : ctaid=(34,0,0) tid=(95,0,0)
GPGPU-Sim PTX: 20800000 instructions simulated : ctaid=(48,0,0) tid=(31,0,0)
GPGPU-Sim PTX: 20900000 instructions simulated : ctaid=(58,0,0) tid=(95,0,0)
GPGPU-Sim PTX: 21000000 instructions simulated : ctaid=(11,0,0) tid=(31,0,0)
GPGPU-Sim PTX: 21100000 instructions simulated : ctaid=(5,0,0) tid=(95,0,0)
GPGPU-Sim PTX: 21200000 instructions simulated : ctaid=(69,0,0) tid=(31,0,0)
GPGPU-Sim PTX: 21300000 instructions simulated : ctaid=(3,0,0) tid=(127,0,0)
GPGPU-Sim PTX: 21400000 instructions simulated : ctaid=(17,0,0) tid=(95,0,0)
GPGPU-Sim uArch: cycles simulated: 38000  inst.: 21439232 (ipc=564.2) sim_rate=765686 (inst/sec) elapsed = 0:0:00:28 / Mon Apr 15 15:38:17 2019
GPGPU-Sim PTX: 21500000 instructions simulated : ctaid=(18,0,0) tid=(31,0,0)
GPGPU-Sim PTX: 21600000 instructions simulated : ctaid=(29,0,0) tid=(63,0,0)
GPGPU-Sim PTX: 21700000 instructions simulated : ctaid=(22,0,0) tid=(31,0,0)
GPGPU-Sim PTX: 21800000 instructions simulated : ctaid=(16,0,0) tid=(31,0,0)
GPGPU-Sim PTX: 21900000 instructions simulated : ctaid=(35,0,0) tid=(63,0,0)
GPGPU-Sim PTX: 22000000 instructions simulated : ctaid=(64,0,0) tid=(31,0,0)
GPGPU-Sim PTX: 22100000 instructions simulated : ctaid=(27,0,0) tid=(63,0,0)
GPGPU-Sim PTX: 22200000 instructions simulated : ctaid=(14,0,0) tid=(63,0,0)
GPGPU-Sim PTX: 22300000 instructions simulated : ctaid=(28,0,0) tid=(95,0,0)
GPGPU-Sim uArch: cycles simulated: 39500  inst.: 22285408 (ipc=564.2) sim_rate=768462 (inst/sec) elapsed = 0:0:00:29 / Mon Apr 15 15:38:18 2019
GPGPU-Sim PTX: 22400000 instructions simulated : ctaid=(33,0,0) tid=(95,0,0)
GPGPU-Sim PTX: 22500000 instructions simulated : ctaid=(49,0,0) tid=(95,0,0)
GPGPU-Sim PTX: 22600000 instructions simulated : ctaid=(75,0,0) tid=(63,0,0)
GPGPU-Sim PTX: 22700000 instructions simulated : ctaid=(24,0,0) tid=(95,0,0)
GPGPU-Sim PTX: 22800000 instructions simulated : ctaid=(76,0,0) tid=(127,0,0)
GPGPU-Sim PTX: 22900000 instructions simulated : ctaid=(3,0,0) tid=(127,0,0)
GPGPU-Sim PTX: 23000000 instructions simulated : ctaid=(103,0,0) tid=(31,0,0)
GPGPU-Sim PTX: 23100000 instructions simulated : ctaid=(64,0,0) tid=(63,0,0)
GPGPU-Sim PTX: 23200000 instructions simulated : ctaid=(17,0,0) tid=(31,0,0)
GPGPU-Sim uArch: cycles simulated: 41000  inst.: 23176224 (ipc=565.3) sim_rate=772540 (inst/sec) elapsed = 0:0:00:30 / Mon Apr 15 15:38:19 2019
GPGPU-Sim PTX: 23300000 instructions simulated : ctaid=(25,0,0) tid=(31,0,0)
GPGPU-Sim PTX: 23400000 instructions simulated : ctaid=(72,0,0) tid=(95,0,0)
GPGPU-Sim PTX: 23500000 instructions simulated : ctaid=(40,0,0) tid=(63,0,0)
GPGPU-Sim PTX: 23600000 instructions simulated : ctaid=(48,0,0) tid=(95,0,0)
GPGPU-Sim PTX: 23700000 instructions simulated : ctaid=(59,0,0) tid=(95,0,0)
GPGPU-Sim PTX: 23800000 instructions simulated : ctaid=(40,0,0) tid=(31,0,0)
GPGPU-Sim uArch: cycles simulated: 42000  inst.: 23769440 (ipc=565.9) sim_rate=766756 (inst/sec) elapsed = 0:0:00:31 / Mon Apr 15 15:38:20 2019
GPGPU-Sim PTX: 23900000 instructions simulated : ctaid=(42,0,0) tid=(63,0,0)
GPGPU-Sim PTX: 24000000 instructions simulated : ctaid=(24,0,0) tid=(31,0,0)
GPGPU-Sim PTX: 24100000 instructions simulated : ctaid=(14,0,0) tid=(127,0,0)
GPGPU-Sim PTX: 24200000 instructions simulated : ctaid=(57,0,0) tid=(95,0,0)
GPGPU-Sim PTX: 24300000 instructions simulated : ctaid=(108,0,0) tid=(31,0,0)
GPGPU-Sim PTX: 24400000 instructions simulated : ctaid=(71,0,0) tid=(95,0,0)
GPGPU-Sim PTX: 24500000 instructions simulated : ctaid=(57,0,0) tid=(127,0,0)
GPGPU-Sim PTX: 24600000 instructions simulated : ctaid=(10,0,0) tid=(31,0,0)
GPGPU-Sim uArch: cycles simulated: 43500  inst.: 24634848 (ipc=566.3) sim_rate=769839 (inst/sec) elapsed = 0:0:00:32 / Mon Apr 15 15:38:21 2019
GPGPU-Sim PTX: 24700000 instructions simulated : ctaid=(5,0,0) tid=(63,0,0)
GPGPU-Sim PTX: 24800000 instructions simulated : ctaid=(99,0,0) tid=(31,0,0)
GPGPU-Sim PTX: 24900000 instructions simulated : ctaid=(61,0,0) tid=(127,0,0)
GPGPU-Sim PTX: 25000000 instructions simulated : ctaid=(15,0,0) tid=(127,0,0)
GPGPU-Sim PTX: 25100000 instructions simulated : ctaid=(4,0,0) tid=(95,0,0)
GPGPU-Sim PTX: 25200000 instructions simulated : ctaid=(2,0,0) tid=(31,0,0)
GPGPU-Sim PTX: 25300000 instructions simulated : ctaid=(24,0,0) tid=(95,0,0)
GPGPU-Sim PTX: 25400000 instructions simulated : ctaid=(44,0,0) tid=(31,0,0)
GPGPU-Sim PTX: 25500000 instructions simulated : ctaid=(44,0,0) tid=(95,0,0)
GPGPU-Sim uArch: cycles simulated: 45000  inst.: 25511840 (ipc=566.9) sim_rate=773086 (inst/sec) elapsed = 0:0:00:33 / Mon Apr 15 15:38:22 2019
GPGPU-Sim PTX: 25600000 instructions simulated : ctaid=(58,0,0) tid=(31,0,0)
GPGPU-Sim PTX: 25700000 instructions simulated : ctaid=(16,0,0) tid=(63,0,0)
GPGPU-Sim PTX: 25800000 instructions simulated : ctaid=(60,0,0) tid=(31,0,0)
GPGPU-Sim PTX: 25900000 instructions simulated : ctaid=(79,0,0) tid=(31,0,0)
GPGPU-Sim PTX: 26000000 instructions simulated : ctaid=(86,0,0) tid=(95,0,0)
GPGPU-Sim PTX: 26100000 instructions simulated : ctaid=(46,0,0) tid=(95,0,0)
GPGPU-Sim PTX: 26200000 instructions simulated : ctaid=(70,0,0) tid=(63,0,0)
GPGPU-Sim PTX: 26300000 instructions simulated : ctaid=(0,0,0) tid=(63,0,0)
GPGPU-Sim PTX: 26400000 instructions simulated : ctaid=(116,0,0) tid=(95,0,0)
GPGPU-Sim uArch: cycles simulated: 46500  inst.: 26385984 (ipc=567.4) sim_rate=776058 (inst/sec) elapsed = 0:0:00:34 / Mon Apr 15 15:38:23 2019
GPGPU-Sim PTX: 26500000 instructions simulated : ctaid=(83,0,0) tid=(31,0,0)
GPGPU-Sim PTX: 26600000 instructions simulated : ctaid=(83,0,0) tid=(31,0,0)
GPGPU-Sim PTX: 26700000 instructions simulated : ctaid=(16,0,0) tid=(31,0,0)
GPGPU-Sim PTX: 26800000 instructions simulated : ctaid=(53,0,0) tid=(95,0,0)
GPGPU-Sim PTX: 26900000 instructions simulated : ctaid=(12,0,0) tid=(95,0,0)
GPGPU-Sim PTX: 27000000 instructions simulated : ctaid=(7,0,0) tid=(95,0,0)
GPGPU-Sim PTX: 27100000 instructions simulated : ctaid=(65,0,0) tid=(95,0,0)
GPGPU-Sim PTX: 27200000 instructions simulated : ctaid=(100,0,0) tid=(95,0,0)
GPGPU-Sim uArch: cycles simulated: 48000  inst.: 27260384 (ipc=567.9) sim_rate=778868 (inst/sec) elapsed = 0:0:00:35 / Mon Apr 15 15:38:24 2019
GPGPU-Sim PTX: 27300000 instructions simulated : ctaid=(25,0,0) tid=(127,0,0)
GPGPU-Sim PTX: 27400000 instructions simulated : ctaid=(47,0,0) tid=(63,0,0)
GPGPU-Sim PTX: 27500000 instructions simulated : ctaid=(56,0,0) tid=(63,0,0)
GPGPU-Sim PTX: 27600000 instructions simulated : ctaid=(6,0,0) tid=(127,0,0)
GPGPU-Sim PTX: 27700000 instructions simulated : ctaid=(52,0,0) tid=(31,0,0)
GPGPU-Sim PTX: 27800000 instructions simulated : ctaid=(70,0,0) tid=(31,0,0)
GPGPU-Sim uArch: cycles simulated: 49000  inst.: 27839360 (ipc=568.2) sim_rate=773315 (inst/sec) elapsed = 0:0:00:36 / Mon Apr 15 15:38:25 2019
GPGPU-Sim PTX: 27900000 instructions simulated : ctaid=(82,0,0) tid=(95,0,0)
GPGPU-Sim PTX: 28000000 instructions simulated : ctaid=(40,0,0) tid=(95,0,0)
GPGPU-Sim PTX: 28100000 instructions simulated : ctaid=(36,0,0) tid=(63,0,0)
GPGPU-Sim PTX: 28200000 instructions simulated : ctaid=(114,0,0) tid=(63,0,0)
GPGPU-Sim PTX: 28300000 instructions simulated : ctaid=(1,0,0) tid=(127,0,0)
GPGPU-Sim PTX: 28400000 instructions simulated : ctaid=(19,0,0) tid=(95,0,0)
GPGPU-Sim PTX: 28500000 instructions simulated : ctaid=(88,0,0) tid=(31,0,0)
GPGPU-Sim PTX: 28600000 instructions simulated : ctaid=(59,0,0) tid=(127,0,0)
GPGPU-Sim PTX: 28700000 instructions simulated : ctaid=(74,0,0) tid=(95,0,0)
GPGPU-Sim uArch: cycles simulated: 50500  inst.: 28689120 (ipc=568.1) sim_rate=775381 (inst/sec) elapsed = 0:0:00:37 / Mon Apr 15 15:38:26 2019
GPGPU-Sim PTX: 28800000 instructions simulated : ctaid=(86,0,0) tid=(127,0,0)
GPGPU-Sim PTX: 28900000 instructions simulated : ctaid=(114,0,0) tid=(31,0,0)
GPGPU-Sim PTX: 29000000 instructions simulated : ctaid=(23,0,0) tid=(127,0,0)
GPGPU-Sim PTX: 29100000 instructions simulated : ctaid=(11,0,0) tid=(63,0,0)
GPGPU-Sim PTX: 29200000 instructions simulated : ctaid=(17,0,0) tid=(95,0,0)
GPGPU-Sim PTX: 29300000 instructions simulated : ctaid=(18,0,0) tid=(95,0,0)
GPGPU-Sim PTX: 29400000 instructions simulated : ctaid=(18,0,0) tid=(95,0,0)
GPGPU-Sim PTX: 29500000 instructions simulated : ctaid=(29,0,0) tid=(127,0,0)
GPGPU-Sim uArch: cycles simulated: 52000  inst.: 29550912 (ipc=568.3) sim_rate=777655 (inst/sec) elapsed = 0:0:00:38 / Mon Apr 15 15:38:27 2019
GPGPU-Sim PTX: 29600000 instructions simulated : ctaid=(36,0,0) tid=(31,0,0)
GPGPU-Sim PTX: 29700000 instructions simulated : ctaid=(0,0,0) tid=(63,0,0)
GPGPU-Sim PTX: 29800000 instructions simulated : ctaid=(54,0,0) tid=(63,0,0)
GPGPU-Sim PTX: 29900000 instructions simulated : ctaid=(56,0,0) tid=(127,0,0)
GPGPU-Sim PTX: 30000000 instructions simulated : ctaid=(64,0,0) tid=(31,0,0)
GPGPU-Sim PTX: 30100000 instructions simulated : ctaid=(2,0,0) tid=(127,0,0)
GPGPU-Sim PTX: 30200000 instructions simulated : ctaid=(5,0,0) tid=(127,0,0)
GPGPU-Sim PTX: 30300000 instructions simulated : ctaid=(30,0,0) tid=(31,0,0)
GPGPU-Sim PTX: 30400000 instructions simulated : ctaid=(64,0,0) tid=(127,0,0)
GPGPU-Sim uArch: cycles simulated: 53500  inst.: 30422368 (ipc=568.6) sim_rate=780060 (inst/sec) elapsed = 0:0:00:39 / Mon Apr 15 15:38:28 2019
GPGPU-Sim PTX: 30500000 instructions simulated : ctaid=(4,0,0) tid=(31,0,0)
GPGPU-Sim PTX: 30600000 instructions simulated : ctaid=(83,0,0) tid=(127,0,0)
GPGPU-Sim PTX: 30700000 instructions simulated : ctaid=(71,0,0) tid=(63,0,0)
GPGPU-Sim PTX: 30800000 instructions simulated : ctaid=(26,0,0) tid=(127,0,0)
GPGPU-Sim PTX: 30900000 instructions simulated : ctaid=(11,0,0) tid=(31,0,0)
GPGPU-Sim PTX: 31000000 instructions simulated : ctaid=(39,0,0) tid=(31,0,0)
GPGPU-Sim PTX: 31100000 instructions simulated : ctaid=(25,0,0) tid=(127,0,0)
GPGPU-Sim PTX: 31200000 instructions simulated : ctaid=(84,0,0) tid=(63,0,0)
GPGPU-Sim PTX: 31300000 instructions simulated : ctaid=(37,0,0) tid=(31,0,0)
GPGPU-Sim uArch: cycles simulated: 55000  inst.: 31279616 (ipc=568.7) sim_rate=781990 (inst/sec) elapsed = 0:0:00:40 / Mon Apr 15 15:38:29 2019
GPGPU-Sim PTX: 31400000 instructions simulated : ctaid=(41,0,0) tid=(31,0,0)
GPGPU-Sim PTX: 31500000 instructions simulated : ctaid=(35,0,0) tid=(127,0,0)
GPGPU-Sim PTX: 31600000 instructions simulated : ctaid=(55,0,0) tid=(63,0,0)
GPGPU-Sim PTX: 31700000 instructions simulated : ctaid=(13,0,0) tid=(31,0,0)
GPGPU-Sim PTX: 31800000 instructions simulated : ctaid=(19,0,0) tid=(31,0,0)
GPGPU-Sim PTX: 31900000 instructions simulated : ctaid=(93,0,0) tid=(63,0,0)
GPGPU-Sim uArch: cycles simulated: 56000  inst.: 31875712 (ipc=569.2) sim_rate=777456 (inst/sec) elapsed = 0:0:00:41 / Mon Apr 15 15:38:30 2019
GPGPU-Sim PTX: 32000000 instructions simulated : ctaid=(62,0,0) tid=(31,0,0)
GPGPU-Sim PTX: 32100000 instructions simulated : ctaid=(38,0,0) tid=(63,0,0)
GPGPU-Sim PTX: 32200000 instructions simulated : ctaid=(111,0,0) tid=(31,0,0)
GPGPU-Sim PTX: 32300000 instructions simulated : ctaid=(3,0,0) tid=(95,0,0)
GPGPU-Sim PTX: 32400000 instructions simulated : ctaid=(28,0,0) tid=(127,0,0)
GPGPU-Sim PTX: 32500000 instructions simulated : ctaid=(3,0,0) tid=(95,0,0)
GPGPU-Sim PTX: 32600000 instructions simulated : ctaid=(57,0,0) tid=(63,0,0)
GPGPU-Sim PTX: 32700000 instructions simulated : ctaid=(104,0,0) tid=(63,0,0)
GPGPU-Sim uArch: cycles simulated: 57500  inst.: 32737280 (ipc=569.3) sim_rate=779459 (inst/sec) elapsed = 0:0:00:42 / Mon Apr 15 15:38:31 2019
GPGPU-Sim PTX: 32800000 instructions simulated : ctaid=(32,0,0) tid=(31,0,0)
GPGPU-Sim PTX: 32900000 instructions simulated : ctaid=(0,0,0) tid=(63,0,0)
GPGPU-Sim PTX: 33000000 instructions simulated : ctaid=(51,0,0) tid=(63,0,0)
GPGPU-Sim PTX: 33100000 instructions simulated : ctaid=(24,0,0) tid=(95,0,0)
GPGPU-Sim PTX: 33200000 instructions simulated : ctaid=(6,0,0) tid=(127,0,0)
GPGPU-Sim PTX: 33300000 instructions simulated : ctaid=(14,0,0) tid=(95,0,0)
GPGPU-Sim PTX: 33400000 instructions simulated : ctaid=(20,0,0) tid=(127,0,0)
GPGPU-Sim PTX: 33500000 instructions simulated : ctaid=(94,0,0) tid=(95,0,0)
GPGPU-Sim PTX: 33600000 instructions simulated : ctaid=(76,0,0) tid=(127,0,0)
GPGPU-Sim uArch: cycles simulated: 59000  inst.: 33569056 (ipc=569.0) sim_rate=780675 (inst/sec) elapsed = 0:0:00:43 / Mon Apr 15 15:38:32 2019
GPGPU-Sim PTX: 33700000 instructions simulated : ctaid=(2,0,0) tid=(31,0,0)
GPGPU-Sim PTX: 33800000 instructions simulated : ctaid=(91,0,0) tid=(63,0,0)
GPGPU-Sim PTX: 33900000 instructions simulated : ctaid=(46,0,0) tid=(63,0,0)
GPGPU-Sim PTX: 34000000 instructions simulated : ctaid=(66,0,0) tid=(31,0,0)
GPGPU-Sim PTX: 34100000 instructions simulated : ctaid=(26,0,0) tid=(127,0,0)
GPGPU-Sim PTX: 34200000 instructions simulated : ctaid=(11,0,0) tid=(63,0,0)
GPGPU-Sim PTX: 34300000 instructions simulated : ctaid=(73,0,0) tid=(31,0,0)
GPGPU-Sim uArch: cycles simulated: 60500  inst.: 34355776 (ipc=567.9) sim_rate=780813 (inst/sec) elapsed = 0:0:00:44 / Mon Apr 15 15:38:33 2019
GPGPU-Sim PTX: 34400000 instructions simulated : ctaid=(24,0,0) tid=(127,0,0)
GPGPU-Sim PTX: 34500000 instructions simulated : ctaid=(15,0,0) tid=(63,0,0)
GPGPU-Sim PTX: 34600000 instructions simulated : ctaid=(25,0,0) tid=(127,0,0)
GPGPU-Sim PTX: 34700000 instructions simulated : ctaid=(20,0,0) tid=(63,0,0)
GPGPU-Sim PTX: 34800000 instructions simulated : ctaid=(68,0,0) tid=(63,0,0)
GPGPU-Sim PTX: 34900000 instructions simulated : ctaid=(37,0,0) tid=(31,0,0)
GPGPU-Sim PTX: 35000000 instructions simulated : ctaid=(55,0,0) tid=(127,0,0)
GPGPU-Sim PTX: 35100000 instructions simulated : ctaid=(40,0,0) tid=(63,0,0)
GPGPU-Sim uArch: cycles simulated: 62000  inst.: 35129760 (ipc=566.6) sim_rate=780661 (inst/sec) elapsed = 0:0:00:45 / Mon Apr 15 15:38:34 2019
GPGPU-Sim PTX: 35200000 instructions simulated : ctaid=(39,0,0) tid=(127,0,0)
GPGPU-Sim PTX: 35300000 instructions simulated : ctaid=(61,0,0) tid=(63,0,0)
GPGPU-Sim PTX: 35400000 instructions simulated : ctaid=(9,0,0) tid=(63,0,0)
GPGPU-Sim PTX: 35500000 instructions simulated : ctaid=(79,0,0) tid=(31,0,0)
GPGPU-Sim PTX: 35600000 instructions simulated : ctaid=(28,0,0) tid=(63,0,0)
GPGPU-Sim uArch: Shader 2 finished CTA #0 (63107,0), 7 CTAs running
GPGPU-Sim uArch: core:  2, cta: 0 initialized @(63108,0)
GPGPU-Sim PTX: 35700000 instructions simulated : ctaid=(66,0,0) tid=(31,0,0)
GPGPU-Sim PTX: 35800000 instructions simulated : ctaid=(35,0,0) tid=(63,0,0)
GPGPU-Sim uArch: cycles simulated: 63500  inst.: 35824128 (ipc=564.2) sim_rate=778785 (inst/sec) elapsed = 0:0:00:46 / Mon Apr 15 15:38:35 2019
GPGPU-Sim PTX: 35900000 instructions simulated : ctaid=(54,0,0) tid=(127,0,0)
GPGPU-Sim PTX: 36000000 instructions simulated : ctaid=(24,0,0) tid=(63,0,0)
GPGPU-Sim uArch: Shader 13 finished CTA #0 (63833,0), 7 CTAs running
GPGPU-Sim uArch: core: 13, cta: 0 initialized @(63834,0)
GPGPU-Sim PTX: 36100000 instructions simulated : ctaid=(9,0,0) tid=(63,0,0)
GPGPU-Sim PTX: 36200000 instructions simulated : ctaid=(63,0,0) tid=(63,0,0)
GPGPU-Sim PTX: 36300000 instructions simulated : ctaid=(75,0,0) tid=(63,0,0)
GPGPU-Sim PTX: 36400000 instructions simulated : ctaid=(56,0,0) tid=(127,0,0)
GPGPU-Sim uArch: Shader 0 finished CTA #0 (64638,0), 7 CTAs running
GPGPU-Sim uArch: core:  0, cta: 0 initialized @(64639,0)
GPGPU-Sim PTX: 36500000 instructions simulated : ctaid=(34,0,0) tid=(63,0,0)
GPGPU-Sim uArch: Shader 9 finished CTA #0 (64933,0), 7 CTAs running
GPGPU-Sim uArch: core:  9, cta: 0 initialized @(64934,0)
GPGPU-Sim PTX: 36600000 instructions simulated : ctaid=(58,0,0) tid=(127,0,0)
GPGPU-Sim PTX: 36700000 instructions simulated : ctaid=(54,0,0) tid=(31,0,0)
GPGPU-Sim PTX: 36800000 instructions simulated : ctaid=(95,0,0) tid=(127,0,0)
GPGPU-Sim uArch: Shader 12 finished CTA #0 (65398,0), 7 CTAs running
GPGPU-Sim uArch: core: 12, cta: 0 initialized @(65399,0)
GPGPU-Sim uArch: Shader 12 finished CTA #1 (65478,0), 7 CTAs running
GPGPU-Sim uArch: core: 12, cta: 1 initialized @(65479,0)
GPGPU-Sim uArch: Shader 1 finished CTA #0 (65492,0), 7 CTAs running
GPGPU-Sim uArch: core:  1, cta: 0 initialized @(65493,0)
GPGPU-Sim uArch: cycles simulated: 65500  inst.: 36854752 (ipc=562.7) sim_rate=784143 (inst/sec) elapsed = 0:0:00:47 / Mon Apr 15 15:38:36 2019
GPGPU-Sim PTX: 36900000 instructions simulated : ctaid=(79,0,0) tid=(63,0,0)
GPGPU-Sim uArch: Shader 5 finished CTA #0 (65553,0), 7 CTAs running
GPGPU-Sim uArch: core:  5, cta: 0 initialized @(65554,0)
GPGPU-Sim uArch: Shader 4 finished CTA #0 (65559,0), 7 CTAs running
GPGPU-Sim uArch: core:  4, cta: 0 initialized @(65560,0)
GPGPU-Sim PTX: 37000000 instructions simulated : ctaid=(98,0,0) tid=(63,0,0)
GPGPU-Sim uArch: Shader 14 finished CTA #0 (65756,0), 7 CTAs running
GPGPU-Sim uArch: core: 14, cta: 0 initialized @(65757,0)
GPGPU-Sim uArch: Shader 8 finished CTA #0 (65822,0), 7 CTAs running
GPGPU-Sim uArch: core:  8, cta: 0 initialized @(65823,0)
GPGPU-Sim uArch: Shader 11 finished CTA #0 (65834,0), 7 CTAs running
GPGPU-Sim uArch: core: 11, cta: 0 initialized @(65835,0)
GPGPU-Sim PTX: 37100000 instructions simulated : ctaid=(95,0,0) tid=(95,0,0)
GPGPU-Sim PTX: 37200000 instructions simulated : ctaid=(131,0,0) tid=(31,0,0)
GPGPU-Sim uArch: Shader 11 finished CTA #1 (66205,0), 7 CTAs running
GPGPU-Sim uArch: core: 11, cta: 1 initialized @(66206,0)
GPGPU-Sim PTX: 37300000 instructions simulated : ctaid=(87,0,0) tid=(31,0,0)
GPGPU-Sim uArch: Shader 3 finished CTA #0 (66349,0), 7 CTAs running
GPGPU-Sim uArch: core:  3, cta: 0 initialized @(66350,0)
GPGPU-Sim PTX: 37400000 instructions simulated : ctaid=(43,0,0) tid=(63,0,0)
GPGPU-Sim uArch: cycles simulated: 66500  inst.: 37417952 (ipc=562.7) sim_rate=779540 (inst/sec) elapsed = 0:0:00:48 / Mon Apr 15 15:38:37 2019
GPGPU-Sim PTX: 37500000 instructions simulated : ctaid=(56,0,0) tid=(63,0,0)
GPGPU-Sim uArch: Shader 7 finished CTA #0 (66621,0), 7 CTAs running
GPGPU-Sim uArch: core:  7, cta: 0 initialized @(66622,0)
GPGPU-Sim uArch: Shader 10 finished CTA #0 (66727,0), 7 CTAs running
GPGPU-Sim uArch: core: 10, cta: 0 initialized @(66728,0)
GPGPU-Sim PTX: 37600000 instructions simulated : ctaid=(58,0,0) tid=(63,0,0)
GPGPU-Sim PTX: 37700000 instructions simulated : ctaid=(95,0,0) tid=(95,0,0)
GPGPU-Sim uArch: Shader 3 finished CTA #1 (66932,0), 7 CTAs running
GPGPU-Sim uArch: core:  3, cta: 1 initialized @(66933,0)
GPGPU-Sim uArch: Shader 6 finished CTA #1 (66948,0), 7 CTAs running
GPGPU-Sim uArch: core:  6, cta: 1 initialized @(66949,0)
GPGPU-Sim PTX: 37800000 instructions simulated : ctaid=(90,0,0) tid=(127,0,0)
GPGPU-Sim PTX: 37900000 instructions simulated : ctaid=(58,0,0) tid=(127,0,0)
GPGPU-Sim uArch: Shader 0 finished CTA #1 (67231,0), 7 CTAs running
GPGPU-Sim uArch: core:  0, cta: 1 initialized @(67232,0)
GPGPU-Sim uArch: Shader 13 finished CTA #1 (67272,0), 7 CTAs running
GPGPU-Sim uArch: core: 13, cta: 1 initialized @(67273,0)
GPGPU-Sim PTX: 38000000 instructions simulated : ctaid=(40,0,0) tid=(63,0,0)
GPGPU-Sim uArch: Shader 13 finished CTA #2 (67412,0), 7 CTAs running
GPGPU-Sim uArch: core: 13, cta: 2 initialized @(67413,0)
GPGPU-Sim PTX: 38100000 instructions simulated : ctaid=(129,0,0) tid=(95,0,0)
GPGPU-Sim PTX: 38200000 instructions simulated : ctaid=(125,0,0) tid=(95,0,0)
GPGPU-Sim PTX: 38300000 instructions simulated : ctaid=(128,0,0) tid=(31,0,0)
GPGPU-Sim uArch: Shader 6 finished CTA #0 (67909,0), 7 CTAs running
GPGPU-Sim uArch: core:  6, cta: 0 initialized @(67910,0)
GPGPU-Sim uArch: cycles simulated: 68000  inst.: 38352672 (ipc=564.0) sim_rate=782707 (inst/sec) elapsed = 0:0:00:49 / Mon Apr 15 15:38:38 2019
GPGPU-Sim PTX: 38400000 instructions simulated : ctaid=(71,0,0) tid=(31,0,0)
GPGPU-Sim uArch: Shader 10 finished CTA #1 (68141,0), 7 CTAs running
GPGPU-Sim uArch: core: 10, cta: 1 initialized @(68142,0)
GPGPU-Sim PTX: 38500000 instructions simulated : ctaid=(101,0,0) tid=(127,0,0)
GPGPU-Sim uArch: Shader 8 finished CTA #1 (68182,0), 7 CTAs running
GPGPU-Sim uArch: core:  8, cta: 1 initialized @(68183,0)
GPGPU-Sim uArch: Shader 1 finished CTA #1 (68224,0), 7 CTAs running
GPGPU-Sim uArch: core:  1, cta: 1 initialized @(68225,0)
GPGPU-Sim PTX: 38600000 instructions simulated : ctaid=(123,0,0) tid=(127,0,0)
GPGPU-Sim uArch: Shader 14 finished CTA #1 (68382,0), 7 CTAs running
GPGPU-Sim uArch: core: 14, cta: 1 initialized @(68383,0)
GPGPU-Sim uArch: Shader 5 finished CTA #1 (68412,0), 7 CTAs running
GPGPU-Sim uArch: core:  5, cta: 1 initialized @(68413,0)
GPGPU-Sim uArch: Shader 9 finished CTA #2 (68466,0), 7 CTAs running
GPGPU-Sim uArch: core:  9, cta: 2 initialized @(68467,0)
GPGPU-Sim PTX: 38700000 instructions simulated : ctaid=(109,0,0) tid=(63,0,0)
GPGPU-Sim uArch: Shader 2 finished CTA #1 (68633,0), 7 CTAs running
GPGPU-Sim uArch: core:  2, cta: 1 initialized @(68634,0)
GPGPU-Sim uArch: Shader 9 finished CTA #1 (68634,0), 7 CTAs running
GPGPU-Sim uArch: core:  9, cta: 1 initialized @(68635,0)
GPGPU-Sim PTX: 38800000 instructions simulated : ctaid=(133,0,0) tid=(63,0,0)
GPGPU-Sim PTX: 38900000 instructions simulated : ctaid=(53,0,0) tid=(63,0,0)
GPGPU-Sim uArch: Shader 11 finished CTA #2 (68960,0), 7 CTAs running
GPGPU-Sim uArch: core: 11, cta: 2 initialized @(68961,0)
GPGPU-Sim PTX: 39000000 instructions simulated : ctaid=(56,0,0) tid=(127,0,0)
GPGPU-Sim uArch: Shader 7 finished CTA #1 (68976,0), 7 CTAs running
GPGPU-Sim uArch: core:  7, cta: 1 initialized @(68977,0)
GPGPU-Sim uArch: Shader 0 finished CTA #2 (68986,0), 7 CTAs running
GPGPU-Sim uArch: core:  0, cta: 2 initialized @(68987,0)
GPGPU-Sim uArch: cycles simulated: 69000  inst.: 38971328 (ipc=564.8) sim_rate=779426 (inst/sec) elapsed = 0:0:00:50 / Mon Apr 15 15:38:39 2019
GPGPU-Sim PTX: 39100000 instructions simulated : ctaid=(36,0,0) tid=(127,0,0)
GPGPU-Sim uArch: Shader 4 finished CTA #1 (69284,0), 7 CTAs running
GPGPU-Sim uArch: core:  4, cta: 1 initialized @(69285,0)
GPGPU-Sim PTX: 39200000 instructions simulated : ctaid=(96,0,0) tid=(95,0,0)
GPGPU-Sim PTX: 39300000 instructions simulated : ctaid=(88,0,0) tid=(31,0,0)
GPGPU-Sim PTX: 39400000 instructions simulated : ctaid=(87,0,0) tid=(127,0,0)
GPGPU-Sim uArch: Shader 12 finished CTA #2 (69694,0), 7 CTAs running
GPGPU-Sim uArch: core: 12, cta: 2 initialized @(69695,0)
GPGPU-Sim PTX: 39500000 instructions simulated : ctaid=(117,0,0) tid=(63,0,0)
GPGPU-Sim PTX: 39600000 instructions simulated : ctaid=(144,0,0) tid=(31,0,0)
GPGPU-Sim uArch: Shader 3 finished CTA #2 (69999,0), 7 CTAs running
GPGPU-Sim uArch: core:  3, cta: 2 initialized @(70000,0)
GPGPU-Sim PTX: 39700000 instructions simulated : ctaid=(92,0,0) tid=(95,0,0)
GPGPU-Sim PTX: 39800000 instructions simulated : ctaid=(113,0,0) tid=(31,0,0)
GPGPU-Sim uArch: Shader 6 finished CTA #2 (70325,0), 7 CTAs running
GPGPU-Sim uArch: core:  6, cta: 2 initialized @(70326,0)
GPGPU-Sim PTX: 39900000 instructions simulated : ctaid=(91,0,0) tid=(95,0,0)
GPGPU-Sim uArch: cycles simulated: 70500  inst.: 39891136 (ipc=565.8) sim_rate=782179 (inst/sec) elapsed = 0:0:00:51 / Mon Apr 15 15:38:40 2019
GPGPU-Sim PTX: 40000000 instructions simulated : ctaid=(49,0,0) tid=(63,0,0)
GPGPU-Sim uArch: Shader 2 finished CTA #2 (70682,0), 7 CTAs running
GPGPU-Sim uArch: core:  2, cta: 2 initialized @(70683,0)
GPGPU-Sim PTX: 40100000 instructions simulated : ctaid=(95,0,0) tid=(31,0,0)
GPGPU-Sim uArch: Shader 5 finished CTA #2 (70852,0), 7 CTAs running
GPGPU-Sim uArch: core:  5, cta: 2 initialized @(70853,0)
GPGPU-Sim PTX: 40200000 instructions simulated : ctaid=(142,0,0) tid=(31,0,0)
GPGPU-Sim uArch: Shader 11 finished CTA #3 (71032,0), 7 CTAs running
GPGPU-Sim uArch: core: 11, cta: 3 initialized @(71033,0)
GPGPU-Sim PTX: 40300000 instructions simulated : ctaid=(82,0,0) tid=(95,0,0)
GPGPU-Sim PTX: 40400000 instructions simulated : ctaid=(46,0,0) tid=(63,0,0)
GPGPU-Sim uArch: Shader 10 finished CTA #2 (71410,0), 7 CTAs running
GPGPU-Sim uArch: core: 10, cta: 2 initialized @(71411,0)
GPGPU-Sim uArch: Shader 14 finished CTA #2 (71428,0), 7 CTAs running
GPGPU-Sim uArch: core: 14, cta: 2 initialized @(71429,0)
GPGPU-Sim PTX: 40500000 instructions simulated : ctaid=(115,0,0) tid=(63,0,0)
GPGPU-Sim PTX: 40600000 instructions simulated : ctaid=(136,0,0) tid=(95,0,0)
GPGPU-Sim uArch: Shader 8 finished CTA #2 (71672,0), 7 CTAs running
GPGPU-Sim uArch: core:  8, cta: 2 initialized @(71673,0)
GPGPU-Sim PTX: 40700000 instructions simulated : ctaid=(49,0,0) tid=(127,0,0)
GPGPU-Sim PTX: 40800000 instructions simulated : ctaid=(138,0,0) tid=(95,0,0)
GPGPU-Sim uArch: cycles simulated: 72000  inst.: 40770176 (ipc=566.3) sim_rate=784041 (inst/sec) elapsed = 0:0:00:52 / Mon Apr 15 15:38:41 2019
GPGPU-Sim PTX: 40900000 instructions simulated : ctaid=(115,0,0) tid=(31,0,0)
GPGPU-Sim uArch: Shader 4 finished CTA #2 (72324,0), 7 CTAs running
GPGPU-Sim uArch: core:  4, cta: 2 initialized @(72325,0)
GPGPU-Sim PTX: 41000000 instructions simulated : ctaid=(139,0,0) tid=(63,0,0)
GPGPU-Sim PTX: 41100000 instructions simulated : ctaid=(73,0,0) tid=(31,0,0)
GPGPU-Sim uArch: Shader 1 finished CTA #2 (72626,0), 7 CTAs running
GPGPU-Sim uArch: core:  1, cta: 2 initialized @(72627,0)
GPGPU-Sim PTX: 41200000 instructions simulated : ctaid=(73,0,0) tid=(31,0,0)
GPGPU-Sim PTX: 41300000 instructions simulated : ctaid=(153,0,0) tid=(63,0,0)
GPGPU-Sim PTX: 41400000 instructions simulated : ctaid=(126,0,0) tid=(127,0,0)
GPGPU-Sim uArch: cycles simulated: 73000  inst.: 41351072 (ipc=566.5) sim_rate=780208 (inst/sec) elapsed = 0:0:00:53 / Mon Apr 15 15:38:42 2019
GPGPU-Sim PTX: 41500000 instructions simulated : ctaid=(67,0,0) tid=(127,0,0)
GPGPU-Sim PTX: 41600000 instructions simulated : ctaid=(147,0,0) tid=(31,0,0)
GPGPU-Sim PTX: 41700000 instructions simulated : ctaid=(117,0,0) tid=(95,0,0)
GPGPU-Sim PTX: 41800000 instructions simulated : ctaid=(110,0,0) tid=(63,0,0)
GPGPU-Sim uArch: Shader 0 finished CTA #3 (73784,0), 7 CTAs running
GPGPU-Sim uArch: core:  0, cta: 3 initialized @(73785,0)
GPGPU-Sim PTX: 41900000 instructions simulated : ctaid=(146,0,0) tid=(95,0,0)
GPGPU-Sim PTX: 42000000 instructions simulated : ctaid=(84,0,0) tid=(95,0,0)
GPGPU-Sim PTX: 42100000 instructions simulated : ctaid=(79,0,0) tid=(63,0,0)
GPGPU-Sim PTX: 42200000 instructions simulated : ctaid=(136,0,0) tid=(127,0,0)
GPGPU-Sim uArch: cycles simulated: 74500  inst.: 42231872 (ipc=566.9) sim_rate=782071 (inst/sec) elapsed = 0:0:00:54 / Mon Apr 15 15:38:43 2019
GPGPU-Sim PTX: 42300000 instructions simulated : ctaid=(146,0,0) tid=(127,0,0)
GPGPU-Sim uArch: Shader 7 finished CTA #2 (74589,0), 7 CTAs running
GPGPU-Sim uArch: core:  7, cta: 2 initialized @(74590,0)
GPGPU-Sim PTX: 42400000 instructions simulated : ctaid=(70,0,0) tid=(63,0,0)
GPGPU-Sim uArch: Shader 12 finished CTA #3 (74782,0), 7 CTAs running
GPGPU-Sim uArch: core: 12, cta: 3 initialized @(74783,0)
GPGPU-Sim PTX: 42500000 instructions simulated : ctaid=(123,0,0) tid=(31,0,0)
GPGPU-Sim PTX: 42600000 instructions simulated : ctaid=(81,0,0) tid=(95,0,0)
GPGPU-Sim PTX: 42700000 instructions simulated : ctaid=(83,0,0) tid=(127,0,0)
GPGPU-Sim PTX: 42800000 instructions simulated : ctaid=(162,0,0) tid=(95,0,0)
GPGPU-Sim PTX: 42900000 instructions simulated : ctaid=(80,0,0) tid=(63,0,0)
GPGPU-Sim uArch: Shader 10 finished CTA #3 (75587,0), 7 CTAs running
GPGPU-Sim uArch: core: 10, cta: 3 initialized @(75588,0)
GPGPU-Sim PTX: 43000000 instructions simulated : ctaid=(73,0,0) tid=(127,0,0)
GPGPU-Sim PTX: 43100000 instructions simulated : ctaid=(87,0,0) tid=(63,0,0)
GPGPU-Sim uArch: Shader 6 finished CTA #3 (75887,0), 7 CTAs running
GPGPU-Sim uArch: core:  6, cta: 3 initialized @(75888,0)
GPGPU-Sim uArch: Shader 9 finished CTA #3 (75959,0), 7 CTAs running
GPGPU-Sim uArch: core:  9, cta: 3 initialized @(75960,0)
GPGPU-Sim uArch: cycles simulated: 76000  inst.: 43134368 (ipc=567.6) sim_rate=784261 (inst/sec) elapsed = 0:0:00:55 / Mon Apr 15 15:38:44 2019
GPGPU-Sim PTX: 43200000 instructions simulated : ctaid=(143,0,0) tid=(95,0,0)
GPGPU-Sim uArch: Shader 8 finished CTA #3 (76143,0), 7 CTAs running
GPGPU-Sim uArch: core:  8, cta: 3 initialized @(76144,0)
GPGPU-Sim PTX: 43300000 instructions simulated : ctaid=(115,0,0) tid=(127,0,0)
GPGPU-Sim uArch: Shader 1 finished CTA #3 (76262,0), 7 CTAs running
GPGPU-Sim uArch: core:  1, cta: 3 initialized @(76263,0)
GPGPU-Sim PTX: 43400000 instructions simulated : ctaid=(137,0,0) tid=(127,0,0)
GPGPU-Sim PTX: 43500000 instructions simulated : ctaid=(125,0,0) tid=(127,0,0)
GPGPU-Sim PTX: 43600000 instructions simulated : ctaid=(93,0,0) tid=(63,0,0)
GPGPU-Sim PTX: 43700000 instructions simulated : ctaid=(117,0,0) tid=(95,0,0)
GPGPU-Sim uArch: cycles simulated: 77000  inst.: 43726656 (ipc=567.9) sim_rate=780833 (inst/sec) elapsed = 0:0:00:56 / Mon Apr 15 15:38:45 2019
GPGPU-Sim PTX: 43800000 instructions simulated : ctaid=(84,0,0) tid=(127,0,0)
GPGPU-Sim PTX: 43900000 instructions simulated : ctaid=(142,0,0) tid=(63,0,0)
GPGPU-Sim PTX: 44000000 instructions simulated : ctaid=(111,0,0) tid=(95,0,0)
GPGPU-Sim PTX: 44100000 instructions simulated : ctaid=(145,0,0) tid=(63,0,0)
GPGPU-Sim uArch: Shader 5 finished CTA #3 (77637,0), 7 CTAs running
GPGPU-Sim uArch: core:  5, cta: 3 initialized @(77638,0)
GPGPU-Sim PTX: 44200000 instructions simulated : ctaid=(73,0,0) tid=(63,0,0)
GPGPU-Sim PTX: 44300000 instructions simulated : ctaid=(83,0,0) tid=(31,0,0)
GPGPU-Sim uArch: Shader 2 finished CTA #3 (78016,0), 7 CTAs running
GPGPU-Sim uArch: core:  2, cta: 3 initialized @(78017,0)
GPGPU-Sim PTX: 44400000 instructions simulated : ctaid=(106,0,0) tid=(31,0,0)
GPGPU-Sim PTX: 44500000 instructions simulated : ctaid=(90,0,0) tid=(63,0,0)
GPGPU-Sim uArch: Shader 3 finished CTA #3 (78266,0), 7 CTAs running
GPGPU-Sim uArch: Shader 14 finished CTA #3 (78266,0), 7 CTAs running
GPGPU-Sim uArch: core:  3, cta: 3 initialized @(78267,0)
GPGPU-Sim uArch: core: 14, cta: 3 initialized @(78267,0)
GPGPU-Sim PTX: 44600000 instructions simulated : ctaid=(91,0,0) tid=(95,0,0)
GPGPU-Sim uArch: cycles simulated: 78500  inst.: 44604352 (ipc=568.2) sim_rate=782532 (inst/sec) elapsed = 0:0:00:57 / Mon Apr 15 15:38:46 2019
GPGPU-Sim PTX: 44700000 instructions simulated : ctaid=(127,0,0) tid=(31,0,0)
GPGPU-Sim PTX: 44800000 instructions simulated : ctaid=(148,0,0) tid=(31,0,0)
GPGPU-Sim PTX: 44900000 instructions simulated : ctaid=(140,0,0) tid=(95,0,0)
GPGPU-Sim PTX: 45000000 instructions simulated : ctaid=(107,0,0) tid=(127,0,0)
GPGPU-Sim uArch: Shader 13 finished CTA #3 (79170,0), 7 CTAs running
GPGPU-Sim uArch: core: 13, cta: 3 initialized @(79171,0)
GPGPU-Sim PTX: 45100000 instructions simulated : ctaid=(88,0,0) tid=(63,0,0)
GPGPU-Sim PTX: 45200000 instructions simulated : ctaid=(79,0,0) tid=(95,0,0)
GPGPU-Sim uArch: cycles simulated: 79500  inst.: 45204480 (ipc=568.6) sim_rate=779387 (inst/sec) elapsed = 0:0:00:58 / Mon Apr 15 15:38:47 2019
GPGPU-Sim PTX: 45300000 instructions simulated : ctaid=(90,0,0) tid=(95,0,0)
GPGPU-Sim PTX: 45400000 instructions simulated : ctaid=(142,0,0) tid=(95,0,0)
GPGPU-Sim PTX: 45500000 instructions simulated : ctaid=(109,0,0) tid=(63,0,0)
GPGPU-Sim PTX: 45600000 instructions simulated : ctaid=(108,0,0) tid=(31,0,0)
GPGPU-Sim PTX: 45700000 instructions simulated : ctaid=(132,0,0) tid=(31,0,0)
GPGPU-Sim PTX: 45800000 instructions simulated : ctaid=(90,0,0) tid=(63,0,0)
GPGPU-Sim PTX: 45900000 instructions simulated : ctaid=(72,0,0) tid=(127,0,0)
GPGPU-Sim PTX: 46000000 instructions simulated : ctaid=(144,0,0) tid=(127,0,0)
GPGPU-Sim PTX: 46100000 instructions simulated : ctaid=(123,0,0) tid=(63,0,0)
GPGPU-Sim uArch: Shader 4 finished CTA #3 (80985,0), 7 CTAs running
GPGPU-Sim uArch: core:  4, cta: 3 initialized @(80986,0)
GPGPU-Sim uArch: cycles simulated: 81000  inst.: 46120992 (ipc=569.4) sim_rate=781711 (inst/sec) elapsed = 0:0:00:59 / Mon Apr 15 15:38:48 2019
GPGPU-Sim PTX: 46200000 instructions simulated : ctaid=(146,0,0) tid=(127,0,0)
GPGPU-Sim uArch: Shader 11 finished CTA #4 (81142,0), 7 CTAs running
GPGPU-Sim uArch: core: 11, cta: 4 initialized @(81143,0)
GPGPU-Sim PTX: 46300000 instructions simulated : ctaid=(136,0,0) tid=(63,0,0)
GPGPU-Sim uArch: Shader 12 finished CTA #4 (81349,0), 7 CTAs running
GPGPU-Sim uArch: core: 12, cta: 4 initialized @(81350,0)
GPGPU-Sim PTX: 46400000 instructions simulated : ctaid=(127,0,0) tid=(63,0,0)
GPGPU-Sim uArch: Shader 1 finished CTA #4 (81430,0), 7 CTAs running
GPGPU-Sim uArch: core:  1, cta: 4 initialized @(81431,0)
GPGPU-Sim uArch: Shader 6 finished CTA #4 (81475,0), 7 CTAs running
GPGPU-Sim uArch: core:  6, cta: 4 initialized @(81476,0)
GPGPU-Sim PTX: 46500000 instructions simulated : ctaid=(99,0,0) tid=(127,0,0)
GPGPU-Sim PTX: 46600000 instructions simulated : ctaid=(159,0,0) tid=(95,0,0)
GPGPU-Sim PTX: 46700000 instructions simulated : ctaid=(126,0,0) tid=(31,0,0)
GPGPU-Sim PTX: 46800000 instructions simulated : ctaid=(92,0,0) tid=(63,0,0)
[...]
max_icnt2mem_latency = 938 
max_icnt2sh_latency = 345242 
mrq_lat_table:122054 	3794 	5998 	13928 	43899 	70200 	94851 	66510 	15698 	568 	9 	0 	0 	0 	0 	0 	0 	0 	0 	0 	0 	0 	0 	0 	0 	0 	0 	0 	0 	0 	0 	0 	
dq_lat_table:0 	0 	0 	0 	0 	0 	0 	0 	0 	0 	0 	0 	0 	0 	0 	0 	0 	0 	0 	0 	0 	0 	0 	0 	0 	0 	0 	0 	0 	0 	0 	0 	
mf_lat_table:0 	0 	0 	0 	0 	0 	0 	82 	48949 	248442 	15041 	1 	0 	0 	0 	0 	0 	0 	0 	0 	0 	0 	0 	0 	0 	0 	0 	0 	0 	0 	0 	0 	
icnt2mem_lat_table:0 	0 	0 	23511 	11704 	24177 	77337 	80544 	91288 	4074 	0 	0 	0 	0 	0 	0 	0 	0 	0 	0 	0 	0 	0 	0 	
icnt2sh_lat_table:0 	0 	0 	130345 	54865 	2295 	10 	0 	0 	0 	0 	158 	1470 	3164 	6258 	12003 	24550 	49417 	27980 	0 	0 	0 	0 	0 	
mf_lat_pw_table:0 	0 	0 	0 	0 	0 	0 	0 	52 	636 	0 	0 	0 	0 	0 	0 	0 	0 	0 	0 	0 	0 	0 	0 	0 	0 	0 	0 	0 	0 	0 	0 	
maximum concurrent accesses to same row:
dram[0]:        32        31        20        18        25        22        38        36        18        16        26        26        32        30        16        22 
dram[1]:        29        34        14        14        24        24        32        32        12        14        24        30        32        30        16        18 
dram[2]:        31        32        28        18        22        24        32        34        24        20        28        30        32        30        28        20 
dram[3]:        38        30        22        14        20        24        32        32        20        12        26        26        32        30        22        16 
dram[4]:        31        30        16        14        28        24        34        32        18        22        28        36        30        30        16        26 
dram[5]:        27        29        24        14        26        26        32        32        28        16        28        28        30        30        30        22 
maximum service time to same row:
dram[0]:      3116      3235      4441      3939      3726      2326      2368      2366      6424      5261      2511      2581      2918      3178      6211      4518 
dram[1]:      2283      3094      4015      3690      3732      2365      2359      2407      5687      4597      2384      2771      2971      3039      5918      4267 
dram[2]:      2007      3103      4159      4476      4312      2931      2375      2476      4875      4965      2474      2546      2939      3091      4513      4480 
dram[3]:      2126      3064      4060      3538      4116      2728      2488      2412      4167      4839      2563      2466      2831      2569      4513      4397 
dram[4]:      3256      3332      3943      4289      2332      2604      2417      2414      4511      4709      2657      2600      3277      3219      4691      4691 
dram[5]:      3136      3228      3973      3770      3291      2663      2391      2372      5004      4393      2581      2583      3143      3150      4501      4807 
average row accesses per activate:
dram[0]:  1.588585  1.579094  1.560166  1.555862  1.578544  1.586835  1.607871  1.611268  1.570889  1.543860  1.589441  1.583391  1.585036  1.581749  1.580111  1.586685 
dram[1]:  1.544959  1.560069  1.534172  1.539932  1.547286  1.558995  1.571429  1.572509  1.535055  1.534541  1.551712  1.563910  1.566051  1.565515  1.538151  1.559646 
dram[2]:  1.577739  1.595775  1.553184  1.554790  1.585724  1.585460  1.614679  1.610700  1.556463  1.564979  1.594425  1.591652  1.589993  1.593315  1.583391  1.584488 
dram[3]:  1.558763  1.562759  1.540457  1.530529  1.543597  1.545485  1.582296  1.574131  1.540222  1.530435  1.556992  1.558583  1.557522  1.544902  1.555933  1.544902 
dram[4]:  1.577044  1.578544  1.541510  1.567755  1.577445  1.570637  1.594425  1.608436  1.558583  1.558052  1.589993  1.589993  1.582843  1.593315  1.573049  1.580656 
dram[5]:  1.539036  1.545703  1.528455  1.536785  1.552587  1.552361  1.568197  1.583939  1.528901  1.535055  1.555933  1.557522  1.564979  1.570350  1.553820  1.566051 
average row locality = 437509/279343 = 1.566207
number of total memory accesses made:
dram[0]:         0         0         0         0         0         0         0         0         0         0         0         0         0         0         0         0 
dram[1]:         0         0         0         0         0         0         0         0         0         0         0         0         0         0         0         0 
dram[2]:         0         0         0         0         0         0         0         0         0         0         0         0         0         0         0         0 
dram[3]:         0         0         0         0         0         0         0         0         0         0         0         0         0         0         0         0 
dram[4]:         0         0         0         0         0         0         0         0         0         0         0         0         0         0         0         0 
dram[5]:         0         0         0         0         0         0         0         0         0         0         0         0         0         0         0         0 
total accesses: 0
min_bank_accesses = 0!
min_chip_accesses = 0!
number of total read accesses:
dram[0]:      3251      3246      3232      3232      3242      3242      3264      3264      3264      3264      3264      3264      3264      3264      3264      3264 
dram[1]:      3250      3246      3232      3232      3242      3242      3264      3264      3264      3264      3264      3264      3264      3264      3264      3264 
dram[2]:      3250      3246      3232      3232      3242      3244      3264      3264      3264      3264      3264      3264      3264      3264      3264      3264 
dram[3]:      3250      3246      3232      3232      3242      3244      3264      3264      3264      3264      3264      3264      3264      3264      3264      3264 
dram[4]:      3248      3246      3232      3232      3242      3244      3264      3264      3264      3264      3264      3264      3264      3264      3264      3264 
dram[5]:      3248      3246      3232      3232      3242      3244      3264      3264      3264      3264      3264      3264      3264      3264      3264      3264 
total reads: 312509
bank skew: 3264/3232 = 1.01
chip skew: 52086/52084 = 1.00
number of total write accesses:
dram[0]:      1286      1286      1280      1280      1290      1290      1312      1312      1312      1312      1312      1312      1312      1312      1312      1312 
dram[1]:      1286      1286      1280      1280      1290      1290      1312      1312      1312      1312      1312      1312      1312      1312      1312      1312 
dram[2]:      1286      1286      1280      1280      1290      1292      1312      1312      1312      1312      1312      1312      1312      1312      1312      1312 
dram[3]:      1286      1286      1280      1280      1290      1292      1312      1312      1312      1312      1312      1312      1312      1312      1312      1312 
dram[4]:      1286      1286      1280      1280      1290      1292      1312      1312      1312      1312      1312      1312      1312      1312      1312      1312 
dram[5]:      1286      1286      1280      1280      1290      1292      1312      1312      1312      1312      1312      1312      1312      1312      1312      1312 
total reads: 125000
bank skew: 1312/1280 = 1.02
chip skew: 20834/20832 = 1.00
average mf latency per bank:
dram[0]:        512       492       512       503       520       507       526       510       513       495       516       499       518       505       528       523
dram[1]:        460       459       466       464       472       472       475       476       460       461       468       464       472       469       479       482
dram[2]:        553       552       566       563       569       564       572       573       561       560       561       555       566       568       580       579
dram[3]:        447       446       456       455       459       460       459       468       449       449       450       450       458       460       471       479
dram[4]:        494       502       505       510       507       508       511       516       503       502       500       507       507       512       519       523
dram[5]:        460       469       477       481       479       483       479       489       470       476       470       477       470       485       491       499
maximum mf latency per bank:
dram[0]:       1960      1337      1586      1497      1624      1497      1665      1493      1651      1593      1522      1333      1627      1562      1673      1441
dram[1]:       1486      1672      1299      1327      1355      1607      1393      1301      1306      1321      1528      1516      1310      1321      1357      1527
dram[2]:       1463      1637      1932      1434      1604      1558      2151      1540      1668      1493      1739      1771      1591      1517      1974      1522
dram[3]:       1613      1341      1340      1290      1341      1234      1405      1598      1327      1409      1305      1249      1361      1376      1439      1317
dram[4]:       1457      1589      1418      1503      1626      1597      1588      1449      1764      1616      1662      1497      1419      1879      1549      1681
dram[5]:       1434      1325      1488      1307      1517      1851      1489      1388      1480      1269      1370      1353      1435      1312      1438      1686

Number of Memory Banks Accessed per Memory Operation per Warp (from 0):
0	0	0	0	0	0	0	0	0	0	0	0	0	0	0	0	0	0	0	0	0	0	0	0	0	0	0	0	0	0	0	0	0	0	0	0	0	0	0	0	0	0	0	0	0	0	0	0	0	0	0	0	0	0	0	0	0	0	0	0	0	0	0	0	0	0	0	0	0	0	0	0	0	0	0	0	0	0	0	0	0	0	0	0	0	0	0	0	0	0	0	0	0	0	0	0	
Average # of Memory Banks Accessed per Memory Operation per Warp=-nan

position of mrq chosen
0	0	0	0	0	0	0	0	0	0	0	0	0	0	0	0	

average position of mrq chosen = -nan
Memory Partition 0: 
Cache L2_bank_000:
MSHR contents

Cache L2_bank_001:
MSHR contents

In Dram Latency Queue (total = 0): 
DRAM[0]: 16 bks, busW=4 BL=8 CL=12, tRRD=2 tCCD=6, tRCD=12 tRAS=28 tRP=12 tRC=40
n_cmd=455720 n_nop=217628 n_act=46137 n_pre=46121 n_req=72917 n_rd=104170 n_write=41664 bw_util=0.64
n_activity=445438 dram_eff=0.6548
bk0: 6502a 217532i bk1: 6492a 215359i bk2: 6464a 205535i bk3: 6464a 200515i bk4: 6484a 196653i bk5: 6484a 185686i bk6: 6528a 179413i bk7: 6528a 174488i bk8: 6528a 211938i bk9: 6528a 205551i bk10: 6528a 203722i bk11: 6528a 197201i bk12: 6528a 192137i bk13: 6528a 182058i bk14: 6528a 176421i bk15: 6528a 167284i 
dram_util_bins: 0 0 0 0 0 0 0 0 0 0
dram_eff_bins: 0 0 0 0 0 0 0 0 0 0
mrqq: max=16 avg=14.7161
Memory Partition 1: 
Cache L2_bank_002:
MSHR contents

Cache L2_bank_003:
MSHR contents

In Dram Latency Queue (total = 0): 
DRAM[1]: 16 bks, busW=4 BL=8 CL=12, tRRD=2 tCCD=6, tRCD=12 tRAS=28 tRP=12 tRC=40
n_cmd=455720 n_nop=215980 n_act=46962 n_pre=46946 n_req=72916 n_rd=104168 n_write=41664 bw_util=0.64
n_activity=446582 dram_eff=0.6531
bk0: 6500a 215244i bk1: 6492a 213792i bk2: 6464a 203404i bk3: 6464a 198791i bk4: 6484a 195458i bk5: 6484a 186620i bk6: 6528a 178073i bk7: 6528a 168189i bk8: 6528a 212684i bk9: 6528a 204513i bk10: 6528a 200681i bk11: 6528a 199045i bk12: 6528a 192857i bk13: 6528a 184561i bk14: 6528a 176163i bk15: 6528a 167956i 
dram_util_bins: 0 0 0 0 0 0 0 0 0 0
dram_eff_bins: 0 0 0 0 0 0 0 0 0 0
mrqq: max=16 avg=14.3129
Memory Partition 2: 
Cache L2_bank_004:
MSHR contents

Cache L2_bank_005:
MSHR contents

In Dram Latency Queue (total = 0): 
DRAM[2]: 16 bks, busW=4 BL=8 CL=12, tRRD=2 tCCD=6, tRCD=12 tRAS=28 tRP=12 tRC=40
n_cmd=455720 n_nop=217790 n_act=46053 n_pre=46037 n_req=72920 n_rd=104172 n_write=41668 bw_util=0.64
n_activity=445610 dram_eff=0.6546
bk0: 6500a 216512i bk1: 6492a 212136i bk2: 6464a 203606i bk3: 6464a 200822i bk4: 6484a 196543i bk5: 6488a 189024i bk6: 6528a 179547i bk7: 6528a 169803i bk8: 6528a 212052i bk9: 6528a 204264i bk10: 6528a 204570i bk11: 6528a 198587i bk12: 6528a 191181i bk13: 6528a 184317i bk14: 6528a 178162i bk15: 6528a 166649i 
dram_util_bins: 0 0 0 0 0 0 0 0 0 0
dram_eff_bins: 0 0 0 0 0 0 0 0 0 0
mrqq: max=16 avg=14.9249
Memory Partition 3: 
Cache L2_bank_006:
MSHR contents

Cache L2_bank_007:
MSHR contents

In Dram Latency Queue (total = 0): 
DRAM[3]: 16 bks, busW=4 BL=8 CL=12, tRRD=2 tCCD=6, tRCD=12 tRAS=28 tRP=12 tRC=40
n_cmd=455720 n_nop=215904 n_act=46996 n_pre=46980 n_req=72920 n_rd=104172 n_write=41668 bw_util=0.64
n_activity=447096 dram_eff=0.6524
bk0: 6500a 219726i bk1: 6492a 214488i bk2: 6464a 206124i bk3: 6464a 201440i bk4: 6484a 191869i bk5: 6488a 186910i bk6: 6528a 181755i bk7: 6528a 172793i bk8: 6528a 215148i bk9: 6528a 211265i bk10: 6528a 210061i bk11: 6528a 198079i bk12: 6528a 191873i bk13: 6528a 185842i bk14: 6528a 172771i bk15: 6528a 162609i 
dram_util_bins: 0 0 0 0 0 0 0 0 0 0
dram_eff_bins: 0 0 0 0 0 0 0 0 0 0
mrqq: max=16 avg=14.4112
Memory Partition 4: 
Cache L2_bank_008:
MSHR contents

Cache L2_bank_009:
MSHR contents

In Dram Latency Queue (total = 0): 
DRAM[4]: 16 bks, busW=4 BL=8 CL=12, tRRD=2 tCCD=6, tRCD=12 tRAS=28 tRP=12 tRC=40
n_cmd=455720 n_nop=217454 n_act=46223 n_pre=46207 n_req=72918 n_rd=104168 n_write=41668 bw_util=0.64
n_activity=445538 dram_eff=0.6547
bk0: 6496a 221959i bk1: 6492a 214359i bk2: 6464a 207563i bk3: 6464a 199084i bk4: 6484a 198846i bk5: 6488a 189761i bk6: 6528a 179499i bk7: 6528a 169581i bk8: 6528a 212761i bk9: 6528a 206868i bk10: 6528a 205750i bk11: 6528a 198992i bk12: 6528a 195343i bk13: 6528a 184775i bk14: 6528a 177258i bk15: 6528a 167875i 
dram_util_bins: 0 0 0 0 0 0 0 0 0 0
dram_eff_bins: 0 0 0 0 0 0 0 0 0 0
mrqq: max=16 avg=14.4633
Memory Partition 5: 
Cache L2_bank_010:
MSHR contents
MSHR: tag=0x80f20d80, atomic=0 1 entries : 0x7f96b8f49fd0 :  mf: uid=7729135, sid05:w03, part=5, addr=0x80f20d80, load , size=128, unknown  status = IN_PARTITION_DRAM (345240), 

Cache L2_bank_011:
MSHR contents

In Dram Latency Queue (total = 0): 
DRAM[5]: 16 bks, busW=4 BL=8 CL=12, tRRD=2 tCCD=6, tRCD=12 tRAS=28 tRP=12 tRC=40
n_cmd=455720 n_nop=215956 n_act=46972 n_pre=46956 n_req=72918 n_rd=104168 n_write=41668 bw_util=0.64
n_activity=446392 dram_eff=0.6534
bk0: 6496a 214344i bk1: 6492a 208166i bk2: 6464a 202463i bk3: 6464a 199988i bk4: 6484a 190700i bk5: 6488a 186236i bk6: 6528a 179351i bk7: 6528a 166350i bk8: 6528a 210072i bk9: 6528a 202763i bk10: 6528a 200913i bk11: 6528a 199232i bk12: 6528a 192205i bk13: 6528a 182341i bk14: 6528a 172452i bk15: 6528a 162068i 
dram_util_bins: 0 0 0 0 0 0 0 0 0 0
dram_eff_bins: 0 0 0 0 0 0 0 0 0 0
mrqq: max=16 avg=14.3684

========= L2 cache stats =========
L2_cache_bank[0]: Access = 26087, Miss = 26045, Miss_rate = 0.998, Pending_hits = 9, Reservation_fails = 16912
L2_cache_bank[1]: Access = 26040, Miss = 26040, Miss_rate = 1.000, Pending_hits = 0, Reservation_fails = 22399
L2_cache_bank[2]: Access = 26072, Miss = 26044, Miss_rate = 0.999, Pending_hits = 6, Reservation_fails = 22993
L2_cache_bank[3]: Access = 26040, Miss = 26040, Miss_rate = 1.000, Pending_hits = 0, Reservation_fails = 25414
L2_cache_bank[4]: Access = 26072, Miss = 26044, Miss_rate = 0.999, Pending_hits = 6, Reservation_fails = 25009
L2_cache_bank[5]: Access = 26042, Miss = 26042, Miss_rate = 1.000, Pending_hits = 0, Reservation_fails = 29876
L2_cache_bank[6]: Access = 26072, Miss = 26044, Miss_rate = 0.999, Pending_hits = 6, Reservation_fails = 19094
L2_cache_bank[7]: Access = 26042, Miss = 26042, Miss_rate = 1.000, Pending_hits = 0, Reservation_fails = 22351
L2_cache_bank[8]: Access = 26042, Miss = 26042, Miss_rate = 1.000, Pending_hits = 0, Reservation_fails = 21524
L2_cache_bank[9]: Access = 26042, Miss = 26042, Miss_rate = 1.000, Pending_hits = 0, Reservation_fails = 30857
L2_cache_bank[10]: Access = 26042, Miss = 26042, Miss_rate = 1.000, Pending_hits = 0, Reservation_fails = 22613
L2_cache_bank[11]: Access = 26042, Miss = 26042, Miss_rate = 1.000, Pending_hits = 0, Reservation_fails = 28743
L2_total_cache_accesses = 312635
L2_total_cache_misses = 312509
L2_total_cache_miss_rate = 0.9996
L2_total_cache_pending_hits = 27
L2_total_cache_reservation_fails = 287785
L2_total_cache_breakdown:
	L2_cache_stats_breakdown[GLOBAL_ACC_R][MISS] = 187500
	L2_cache_stats_breakdown[GLOBAL_ACC_R][RESERVATION_FAIL] = 170241
	L2_cache_stats_breakdown[CONST_ACC_R][HIT] = 11
	L2_cache_stats_breakdown[CONST_ACC_R][HIT_RESERVED] = 3
	L2_cache_stats_breakdown[CONST_ACC_R][MISS] = 1
	L2_cache_stats_breakdown[CONST_ACC_R][RESERVATION_FAIL] = 109
	L2_cache_stats_breakdown[GLOBAL_ACC_W][MISS] = 125000
	L2_cache_stats_breakdown[GLOBAL_ACC_W][RESERVATION_FAIL] = 116738
	L2_cache_stats_breakdown[INST_ACC_R][HIT] = 88
	L2_cache_stats_breakdown[INST_ACC_R][HIT_RESERVED] = 24
	L2_cache_stats_breakdown[INST_ACC_R][MISS] = 8
	L2_cache_stats_breakdown[INST_ACC_R][RESERVATION_FAIL] = 697
L2_cache_data_port_util = 0.000
L2_cache_fill_port_util = 0.302

icnt_total_pkts_mem_to_simt=1063145
icnt_total_pkts_simt_to_mem=812635
LD_mem_lat_dist  0 0 0 0 0 0 0 0 0 0 0 0 0 0 0 0 0 0 0 0 0 0 0 0 0 0 0
ST_mem_lat_dist  0 0 0 0 0 0 0 0 0 0 0 0 0 0 0 0 0 0 0 0 0 0 0 0 0 0 0
----------------------------Interconnect-DETAILS--------------------------------
Class 0:
Packet latency average = 51.1564
	minimum = 6
	maximum = 756
Network latency average = 34.3152
	minimum = 6
	maximum = 546
Slowest packet = 3950
Flit latency average = 25.3602
	minimum = 6
	maximum = 546
Slowest flit = 615264
Fragmentation average = 0.507408
	minimum = 0
	maximum = 457
Injected packet rate average = 0.0670778
	minimum = 0.0584777 (at node 6)
	maximum = 0.0755613 (at node 15)
Accepted packet rate average = 0.0670778
	minimum = 0.0584777 (at node 6)
	maximum = 0.0755613 (at node 15)
Injected flit rate average = 0.20123
	minimum = 0.152 (at node 6)
	maximum = 0.257039 (at node 15)
Accepted flit rate average= 0.20123
	minimum = 0.196105 (at node 16)
	maximum = 0.211663 (at node 5)
Injected packet length average = 2.99995
Accepted packet length average = 2.99995
Total in-flight flits = 0 (0 measured)
====== Overall Traffic Statistics ======
====== Traffic class 0 ======
Packet latency average = 51.1564 (1 samples)
	minimum = 6 (1 samples)
	maximum = 756 (1 samples)
Network latency average = 34.3152 (1 samples)
	minimum = 6 (1 samples)
	maximum = 546 (1 samples)
Flit latency average = 25.3602 (1 samples)
	minimum = 6 (1 samples)
	maximum = 546 (1 samples)
Fragmentation average = 0.507408 (1 samples)
	minimum = 0 (1 samples)
	maximum = 457 (1 samples)
Injected packet rate average = 0.0670778 (1 samples)
	minimum = 0.0584777 (1 samples)
	maximum = 0.0755613 (1 samples)
Accepted packet rate average = 0.0670778 (1 samples)
	minimum = 0.0584777 (1 samples)
	maximum = 0.0755613 (1 samples)
Injected flit rate average = 0.20123 (1 samples)
	minimum = 0.152 (1 samples)
	maximum = 0.257039 (1 samples)
Accepted flit rate average = 0.20123 (1 samples)
	minimum = 0.196105 (1 samples)
	maximum = 0.211663 (1 samples)
Injected packet size average = 2.99995 (1 samples)
Accepted packet size average = 2.99995 (1 samples)
Hops average = 1 (1 samples)
----------------------------END-of-Interconnect-DETAILS-------------------------


gpgpu_simulation_time = 0 days, 0 hrs, 4 min, 56 sec (296 sec)
gpgpu_simulation_rate = 661424 (inst/sec)
gpgpu_simulation_rate = 1166 (cycle/sec)
GPGPU-Sim: synchronize waiting for inactive GPU simulation
GPGPU-Sim API: Stream Manager State
GPGPU-Sim: detected inactive GPU simulation thread
Options count             : 4000000     
BlackScholesGPU() time    : 295524.937500 msec
Effective memory bandwidth: 0.000135 GB/s
Gigaoptions per second    : 0.000014     
Reading back GPU results...
Checking the results...
...running CPU calculations.
Comparing the results...
L1 norm: 1.729535E-07
Max absolute error: 1.192093E-05
TEST PASSED
Shutting down...
...releasing GPU memory.
...releasing CPU memory.
Shutdown done.
GPGPU-Sim: exit_simulation called
GPGPU-Sim: simulation thread signaled exit

Press ENTER to exit...
