

        *** GPGPU-Sim Simulator Version 3.2.2  [build 0] ***


GPGPU-Sim PTX: simulation mode 0 (can change with PTX_SIM_MODE_FUNC environment variable:
               1=functional simulation only, 0=detailed performance simulator)
GPGPU-Sim: Configuration options:

-network_mode                           1 # Interconnection network mode
-inter_config_file   config_fermi_islip.icnt # Interconnection network config file
-gpgpu_ptx_use_cuobjdump                    1 # Use cuobjdump to extract ptx and sass from binaries
-gpgpu_experimental_lib_support                    0 # Try to extract code from cuda libraries [Broken because of unknown cudaGetExportTable]
-gpgpu_ptx_convert_to_ptxplus                    0 # Convert SASS (native ISA) to ptxplus and run ptxplus
-gpgpu_ptx_force_max_capability                   20 # Force maximum compute capability
-gpgpu_ptx_inst_debug_to_file                    0 # Dump executed instructions' debug information to file
-gpgpu_ptx_inst_debug_file       inst_debug.txt # Executed instructions' debug output file
-gpgpu_ptx_inst_debug_thread_uid                    1 # Thread UID for executed instructions' debug output
-gpgpu_simd_model                       1 # 1 = post-dominator
-gpgpu_shader_core_pipeline              1536:32 # shader core pipeline config, i.e., {<nthread>:<warpsize>}
-gpgpu_tex_cache:l1  4:128:24,L:R:m:N:L,F:128:4,128:2 # per-shader L1 texture cache  (READ-ONLY) config  {<nsets>:<bsize>:<assoc>,<rep>:<wr>:<alloc>:<wr_alloc>,<mshr>:<N>:<merge>,<mq>:<rf>}
-gpgpu_const_cache:l1 64:64:2,L:R:f:N:L,A:2:32,4 # per-shader L1 constant memory cache  (READ-ONLY) config  {<nsets>:<bsize>:<assoc>,<rep>:<wr>:<alloc>:<wr_alloc>,<mshr>:<N>:<merge>,<mq>} 
-gpgpu_cache:il1     4:128:4,L:R:f:N:L,A:2:32,4 # shader L1 instruction cache config  {<nsets>:<bsize>:<assoc>,<rep>:<wr>:<alloc>:<wr_alloc>,<mshr>:<N>:<merge>,<mq>} 
-gpgpu_cache:dl1     32:128:4,L:L:m:N:H,A:32:8,8 # per-shader L1 data cache config  {<nsets>:<bsize>:<assoc>,<rep>:<wr>:<alloc>:<wr_alloc>,<mshr>:<N>:<merge>,<mq> | none}
-gpgpu_cache:dl1PrefL1                 none # per-shader L1 data cache config  {<nsets>:<bsize>:<assoc>,<rep>:<wr>:<alloc>:<wr_alloc>,<mshr>:<N>:<merge>,<mq> | none}
-gpgpu_cache:dl1PreShared                 none # per-shader L1 data cache config  {<nsets>:<bsize>:<assoc>,<rep>:<wr>:<alloc>:<wr_alloc>,<mshr>:<N>:<merge>,<mq> | none}
-gmem_skip_L1D                          0 # global memory access skip L1D cache (implements -Xptxas -dlcm=cg, default=no skip)
-gpgpu_perfect_mem                      0 # enable perfect memory mode (no cache miss)
-n_regfile_gating_group                    4 # group of lanes that should be read/written together)
-gpgpu_clock_gated_reg_file                    0 # enable clock gated reg file for power calculations
-gpgpu_clock_gated_lanes                    0 # enable clock gated lanes for power calculations
-gpgpu_shader_registers                32768 # Number of registers per shader core. Limits number of concurrent CTAs. (default 8192)
-gpgpu_shader_cta                       8 # Maximum number of concurrent CTAs in shader (default 8)
-gpgpu_num_cta_barriers                   16 # Maximum number of named barriers per CTA (default 16)
-gpgpu_n_clusters                      15 # number of processing clusters
-gpgpu_n_cores_per_cluster                    1 # number of simd cores per cluster
-gpgpu_n_cluster_ejection_buffer_size                    8 # number of packets in ejection buffer
-gpgpu_n_ldst_response_buffer_size                    2 # number of response packets in ld/st unit ejection buffer
-gpgpu_shmem_size                   16384 # Size of shared memory per shader core (default 16kB)
-gpgpu_shmem_size                   49152 # Size of shared memory per shader core (default 16kB)
-gpgpu_shmem_size_PrefL1                16384 # Size of shared memory per shader core (default 16kB)
-gpgpu_shmem_size_PrefShared                16384 # Size of shared memory per shader core (default 16kB)
-gpgpu_shmem_num_banks                   32 # Number of banks in the shared memory in each shader core (default 16)
-gpgpu_shmem_limited_broadcast                    0 # Limit shared memory to do one broadcast per cycle (default on)
-gpgpu_shmem_warp_parts                    1 # Number of portions a warp is divided into for shared memory bank conflict check 
-gpgpu_warpdistro_shader                   -1 # Specify which shader core to collect the warp size distribution from
-gpgpu_warp_issue_shader                    0 # Specify which shader core to collect the warp issue distribution from
-gpgpu_local_mem_map                    1 # Mapping from local memory space address to simulated GPU physical address space (default = enabled)
-gpgpu_num_reg_banks                   16 # Number of register banks (default = 8)
-gpgpu_reg_bank_use_warp_id                    0 # Use warp ID in mapping registers to banks (default = off)
-gpgpu_operand_collector_num_units_sp                    6 # number of collector units (default = 4)
-gpgpu_operand_collector_num_units_sfu                    8 # number of collector units (default = 4)
-gpgpu_operand_collector_num_units_mem                    2 # number of collector units (default = 2)
-gpgpu_operand_collector_num_units_gen                    0 # number of collector units (default = 0)
-gpgpu_operand_collector_num_in_ports_sp                    2 # number of collector unit in ports (default = 1)
-gpgpu_operand_collector_num_in_ports_sfu                    1 # number of collector unit in ports (default = 1)
-gpgpu_operand_collector_num_in_ports_mem                    1 # number of collector unit in ports (default = 1)
-gpgpu_operand_collector_num_in_ports_gen                    0 # number of collector unit in ports (default = 0)
-gpgpu_operand_collector_num_out_ports_sp                    2 # number of collector unit in ports (default = 1)
-gpgpu_operand_collector_num_out_ports_sfu                    1 # number of collector unit in ports (default = 1)
-gpgpu_operand_collector_num_out_ports_mem                    1 # number of collector unit in ports (default = 1)
-gpgpu_operand_collector_num_out_ports_gen                    0 # number of collector unit in ports (default = 0)
-gpgpu_coalesce_arch                   13 # Coalescing arch (default = 13, anything else is off for now)
-gpgpu_num_sched_per_core                    2 # Number of warp schedulers per core
-gpgpu_max_insn_issue_per_warp                    1 # Max number of instructions that can be issued per warp in one cycle by scheduler
-gpgpu_simt_core_sim_order                    1 # Select the simulation order of cores in a cluster (0=Fix, 1=Round-Robin)
-gpgpu_pipeline_widths        2,1,1,2,1,1,2 # Pipeline widths ID_OC_SP,ID_OC_SFU,ID_OC_MEM,OC_EX_SP,OC_EX_SFU,OC_EX_MEM,EX_WB
-gpgpu_num_sp_units                     2 # Number of SP units (default=1)
-gpgpu_num_sfu_units                    1 # Number of SF units (default=1)
-gpgpu_num_mem_units                    1 # Number if ldst units (default=1) WARNING: not hooked up to anything
-gpgpu_scheduler                      gto # Scheduler configuration: < lrr | gto | two_level_active > If two_level_active:<num_active_warps>:<inner_prioritization>:<outer_prioritization>For complete list of prioritization values see shader.h enum scheduler_prioritization_typeDefault: gto
-gpgpu_dram_scheduler                    1 # 0 = fifo, 1 = FR-FCFS (defaul)
-gpgpu_dram_partition_queues              8:8:8:8 # i2$:$2d:d2$:$2i
-l2_ideal                               0 # Use a ideal L2 cache that always hit
-gpgpu_cache:dl2     64:128:8,L:B:m:W:L,A:32:4,4:0,32 # unified banked L2 data cache config  {<nsets>:<bsize>:<assoc>,<rep>:<wr>:<alloc>:<wr_alloc>,<mshr>:<N>:<merge>,<mq>}
-gpgpu_cache:dl2_texture_only                    0 # L2 cache used for texture only
-gpgpu_n_mem                            6 # number of memory modules (e.g. memory controllers) in gpu
-gpgpu_n_sub_partition_per_mchannel                    2 # number of memory subpartition in each memory module
-gpgpu_n_mem_per_ctrlr                    2 # number of memory chips per memory controller
-gpgpu_memlatency_stat                   14 # track and display latency statistics 0x2 enables MC, 0x4 enables queue logs
-gpgpu_frfcfs_dram_sched_queue_size                   16 # 0 = unlimited (default); # entries per chip
-gpgpu_dram_return_queue_size                  116 # 0 = unlimited (default); # entries per chip
-gpgpu_dram_buswidth                    8 # default = 4 bytes (8 bytes per cycle at DDR)
-gpgpu_dram_burst_length                    8 # Burst length of each DRAM request (default = 4 data bus cycle)
-dram_data_command_freq_ratio                    4 # Frequency ratio between DRAM data bus and command bus (default = 2 times, i.e. DDR)
-gpgpu_dram_timing_opt nbk=16:CCD=2:RRD=6:RCD=12:RAS=28:RP=12:RC=40: CL=12:WL=4:CDLR=5:WR=12:nbkgrp=4:CCDL=3:RTPL=2 # DRAM timing parameters = {nbk:tCCD:tRRD:tRCD:tRAS:tRP:tRC:CL:WL:tCDLR:tWR:nbkgrp:tCCDL:tRTPL}
-rop_latency                          120 # ROP queue latency (default 85)
-dram_latency                         100 # DRAM latency (default 30)
-gpgpu_mem_addr_mapping dramid@8;00000000.00000000.00000000.00000000.0000RRRR.RRRRRRRR.BBBCCCCB.CCSSSSSS # mapping memory address to dram model {dramid@<start bit>;<memory address map>}
-gpgpu_mem_addr_test                    0 # run sweep test to check address mapping for aliased address
-gpgpu_mem_address_mask                    1 # 0 = old addressing mask, 1 = new addressing mask, 2 = new add. mask + flipped bank sel and chip sel bits
-gpuwattch_xml_file  gpuwattch_gtx480.xml # GPUWattch XML file
-power_simulation_enabled                    1 # Turn on power simulator (1=On, 0=Off)
-power_per_cycle_dump                    0 # Dump detailed power output each cycle
-power_trace_enabled                    0 # produce a file for the power trace (1=On, 0=Off)
-power_trace_zlevel                     6 # Compression level of the power trace output log (0=no comp, 9=highest)
-steady_power_levels_enabled                    0 # produce a file for the steady power levels (1=On, 0=Off)
-steady_state_definition                  8:4 # allowed deviation:number of samples
-gpgpu_max_cycle                        0 # terminates gpu simulation early (0 = no limit)
-gpgpu_max_insn                         0 # terminates gpu simulation early (0 = no limit)
-gpgpu_max_cta                          0 # terminates gpu simulation early (0 = no limit)
-gpgpu_runtime_stat                   500 # display runtime statistics such as dram utilization {<freq>:<flag>}
-liveness_message_freq                    1 # Minimum number of seconds between simulation liveness messages (0 = always print)
-gpgpu_flush_l1_cache                    0 # Flush L1 cache at the end of each kernel call
-gpgpu_flush_l2_cache                    0 # Flush L2 cache at the end of each kernel call
-gpgpu_deadlock_detect                    1 # Stop the simulation at deadlock (1=on (default), 0=off)
-gpgpu_ptx_instruction_classification                    0 # if enabled will classify ptx instruction types per kernel (Max 255 kernels now)
-gpgpu_ptx_sim_mode                     0 # Select between Performance (default) or Functional simulation (1)
-gpgpu_clock_domains 700.0:700.0:700.0:924.0 # Clock Domain Frequencies in MhZ {<Core Clock>:<ICNT Clock>:<L2 Clock>:<DRAM Clock>}
-gpgpu_max_concurrent_kernel                    8 # maximum kernels that can run concurrently on GPU
-gpgpu_cflog_interval                    0 # Interval between each snapshot in control flow logger
-visualizer_enabled                     0 # Turn on visualizer output (1=On, 0=Off)
-visualizer_outputfile                 NULL # Specifies the output log file for visualizer
-visualizer_zlevel                      6 # Compression level of the visualizer output log (0=no comp, 9=highest)
-trace_enabled                          0 # Turn on traces
-trace_components                    none # comma seperated list of traces to enable. Complete list found in trace_streams.tup. Default none
-trace_sampling_core                    0 # The core which is printed using CORE_DPRINTF. Default 0
-trace_sampling_memory_partition                   -1 # The memory partition which is printed using MEMPART_DPRINTF. Default -1 (i.e. all)
-enable_ptx_file_line_stats                    1 # Turn on PTX source line statistic profiling. (1 = On)
-ptx_line_stats_filename gpgpu_inst_stats.txt # Output file for PTX source line statistics.
-save_embedded_ptx                      0 # saves ptx files embedded in binary as <n>.ptx
-keep                                   0 # keep intermediate files created by GPGPU-Sim when interfacing with external programs
-gpgpu_ptx_save_converted_ptxplus                    0 # Saved converted ptxplus to a file
-ptx_opcode_latency_int         4,13,4,5,145 # Opcode latencies for integers <ADD,MAX,MUL,MAD,DIV>Default 1,1,19,25,145
-ptx_opcode_latency_fp          4,13,4,5,39 # Opcode latencies for single precision floating points <ADD,MAX,MUL,MAD,DIV>Default 1,1,1,1,30
-ptx_opcode_latency_dp         8,19,8,8,330 # Opcode latencies for double precision floating points <ADD,MAX,MUL,MAD,DIV>Default 8,8,8,8,335
-ptx_opcode_initiation_int            1,2,2,1,8 # Opcode initiation intervals for integers <ADD,MAX,MUL,MAD,DIV>Default 1,1,4,4,32
-ptx_opcode_initiation_fp            1,2,1,1,4 # Opcode initiation intervals for single precision floating points <ADD,MAX,MUL,MAD,DIV>Default 1,1,1,1,5
-ptx_opcode_initiation_dp         8,16,8,8,130 # Opcode initiation intervals for double precision floating points <ADD,MAX,MUL,MAD,DIV>Default 8,8,8,8,130
DRAM Timing Options:
nbk                                    16 # number of banks
CCD                                     2 # column to column delay
RRD                                     6 # minimal delay between activation of rows in different banks
RCD                                    12 # row to column delay
RAS                                    28 # time needed to activate row
RP                                     12 # time needed to precharge (deactivate) row
RC                                     40 # row cycle time
CDLR                                    5 # switching from write to read (changes tWTR)
WR                                     12 # last data-in to row precharge
CL                                     12 # CAS latency
WL                                      4 # Write latency
nbkgrp                                  4 # number of bank groups
CCDL                                    3 # column to column delay between accesses to different bank groups
RTPL                                    2 # read to precharge delay between accesses to different bank groups
Total number of memory sub partition = 12
addr_dec_mask[CHIP]  = 0000000000000000 	high:64 low:0
addr_dec_mask[BK]    = 000000000000e100 	high:16 low:8
addr_dec_mask[ROW]   = 000000000fff0000 	high:28 low:16
addr_dec_mask[COL]   = 0000000000001eff 	high:13 low:0
addr_dec_mask[BURST] = 000000000000003f 	high:6 low:0
sub_partition_id_mask = 0000000000000100
GPGPU-Sim uArch: clock freqs: 700000000.000000:700000000.000000:700000000.000000:924000000.000000
GPGPU-Sim uArch: clock periods: 0.00000000142857142857:0.00000000142857142857:0.00000000142857142857:0.00000000108225108225
*** Initializing Memory Statistics ***
GPGPU-Sim uArch: interconnect node map (shaderID+MemID to icntID)
GPGPU-Sim uArch: Memory nodes ID start from index: 15
GPGPU-Sim uArch:    0   1   2   3   4
GPGPU-Sim uArch:    5   6   7   8   9
GPGPU-Sim uArch:   10  11  12  13  14
GPGPU-Sim uArch:   15  16  17  18  19
GPGPU-Sim uArch:   20  21  22  23  24
GPGPU-Sim uArch:   25  26
GPGPU-Sim uArch: interconnect node reverse map (icntID to shaderID+MemID)
GPGPU-Sim uArch: Memory nodes start from ID: 15
GPGPU-Sim uArch:    0   1   2   3   4
GPGPU-Sim uArch:    5   6   7   8   9
GPGPU-Sim uArch:   10  11  12  13  14
GPGPU-Sim uArch:   15  16  17  18  19
GPGPU-Sim uArch:   20  21  22  23  24
GPGPU-Sim uArch:   25  26
fa24d9d62d9e9d43df0eb292e3b27e2e  /home/scratch/adwait/applications/benchmarks/CUDA/BFS/gpgpu_ptx_sim__BFS
GPGPU-Sim uArch: performance model initialization complete.
GPGPU-Sim PTX: __cudaRegisterFatBinary, fat_cubin_handle = 1, filename=bfs.cu
self exe links to: /home/scratch/adwait/applications/benchmarks/CUDA/BFS/gpgpu_ptx_sim__BFS
Running md5sum using "md5sum /home/scratch/adwait/applications/benchmarks/CUDA/BFS/gpgpu_ptx_sim__BFS "
Running cuobjdump using "$CUDA_INSTALL_PATH/bin/cuobjdump -ptx -elf -sass /home/scratch/adwait/applications/benchmarks/CUDA/BFS/gpgpu_ptx_sim__BFS > _cuobjdump_complete_output_7Hvs4Y"
Parsing file _cuobjdump_complete_output_7Hvs4Y
######### cuobjdump parser ########
## Adding new section ELF
Adding arch: sm_20
Adding identifier: bfs.cu
## Adding new section PTX
Adding ptx filename: _cuobjdump_1.ptx
Adding arch: sm_20
Adding identifier: bfs.cu
Done parsing!!!
GPGPU-Sim PTX: __cudaRegisterFunction _Z6KernelP4NodePiPbS2_S1_S2_i : hostFun 0x0x404fc4, fat_cubin_handle = 1
GPGPU-Sim PTX: instruction assembly for function '_Z6KernelP4NodePiPbS2_S1_S2_i'...   done.
GPGPU-Sim PTX: finding reconvergence points for '_Z6KernelP4NodePiPbS2_S1_S2_i'...
GPGPU-Sim PTX: Finding dominators for '_Z6KernelP4NodePiPbS2_S1_S2_i'...
GPGPU-Sim PTX: Finding immediate dominators for '_Z6KernelP4NodePiPbS2_S1_S2_i'...
GPGPU-Sim PTX: Finding postdominators for '_Z6KernelP4NodePiPbS2_S1_S2_i'...
GPGPU-Sim PTX: Finding immediate postdominators for '_Z6KernelP4NodePiPbS2_S1_S2_i'...
GPGPU-Sim PTX: pre-decoding instructions for '_Z6KernelP4NodePiPbS2_S1_S2_i'...
GPGPU-Sim PTX: reconvergence points for _Z6KernelP4NodePiPbS2_S1_S2_i...
GPGPU-Sim PTX:  1 (potential) branch divergence @  PC=0x030 (_1.ptx:72) @%p1 bra $Lt_0_5122;
GPGPU-Sim PTX:    immediate post dominator      @  PC=0x1e8 (_1.ptx:141) exit;
GPGPU-Sim PTX:  2 (potential) branch divergence @  PC=0x068 (_1.ptx:79) @%p2 bra $Lt_0_5122;
GPGPU-Sim PTX:    immediate post dominator      @  PC=0x1e8 (_1.ptx:141) exit;
GPGPU-Sim PTX:  3 (potential) branch divergence @  PC=0x0e0 (_1.ptx:97) @%p3 bra $Lt_0_5122;
GPGPU-Sim PTX:    immediate post dominator      @  PC=0x1e8 (_1.ptx:141) exit;
GPGPU-Sim PTX:  4 (potential) branch divergence @  PC=0x138 (_1.ptx:111) @%p4 bra $Lt_0_4354;
GPGPU-Sim PTX:    immediate post dominator      @  PC=0x1c8 (_1.ptx:134) add.s32 %r11, %r11, 1;
GPGPU-Sim PTX:  5 (potential) branch divergence @  PC=0x1e0 (_1.ptx:137) @%p5 bra $Lt_0_4098;
GPGPU-Sim PTX:    immediate post dominator      @  PC=0x1e8 (_1.ptx:141) exit;
GPGPU-Sim PTX: ... end of reconvergence points for _Z6KernelP4NodePiPbS2_S1_S2_i
GPGPU-Sim PTX: ... done pre-decoding instructions for '_Z6KernelP4NodePiPbS2_S1_S2_i'.
GPGPU-Sim PTX: finished parsing EMBEDDED .ptx file _1.ptx
Adding _cuobjdump_1.ptx with cubin handle 1
GPGPU-Sim PTX: extracting embedded .ptx to temporary file "_ptx_lfOT32"
Running: cat _ptx_lfOT32 | sed 's/.version 1.5/.version 1.4/' | sed 's/, texmode_independent//' | sed 's/\(\.extern \.const\[1\] .b8 \w\+\)\[\]/\1\[1\]/' | sed 's/const\[.\]/const\[0\]/g' > _ptx2_G9uF36
GPGPU-Sim PTX: generating ptxinfo using "$CUDA_INSTALL_PATH/bin/ptxas --gpu-name=sm_20 -v _ptx2_G9uF36 --output-file  /dev/null 2> _ptx_lfOT32info"
GPGPU-Sim PTX: Kernel '_Z6KernelP4NodePiPbS2_S1_S2_i' : regs=18, lmem=0, smem=0, cmem=84
GPGPU-Sim PTX: removing ptxinfo using "rm -f _ptx_lfOT32 _ptx2_G9uF36 _ptx_lfOT32info"
GPGPU-Sim PTX: loading globals with explicit initializers... 
GPGPU-Sim PTX: finished loading globals (0 bytes total).
GPGPU-Sim PTX: loading constants with explicit initializers...  done.
Reading File
Input file: ./data/graph65536.txt
Read File
Copied Everything to GPU memory

GPGPU-Sim PTX: cudaLaunch for 0x0x404fc4 (mode=performance simulation) on stream 0
GPGPU-Sim PTX: pushing kernel '_Z6KernelP4NodePiPbS2_S1_S2_i' to stream 0, gridDim= (256,1,1) blockDim = (256,1,1) 
kernel '_Z6KernelP4NodePiPbS2_S1_S2_i' transfer to GPU hardware scheduler
GPGPU-Sim uArch: Shader 1 bind to kernel 1 '_Z6KernelP4NodePiPbS2_S1_S2_i'
GPGPU-Sim uArch: CTA/core = 6, limited by: threads regs
GPGPU-Sim uArch: core:  1, cta: 0 initialized @(1,0)
GPGPU-Sim uArch: Shader 2 bind to kernel 1 '_Z6KernelP4NodePiPbS2_S1_S2_i'
GPGPU-Sim uArch: core:  2, cta: 0 initialized @(1,0)
GPGPU-Sim uArch: Shader 3 bind to kernel 1 '_Z6KernelP4NodePiPbS2_S1_S2_i'
GPGPU-Sim uArch: core:  3, cta: 0 initialized @(1,0)
GPGPU-Sim uArch: Shader 4 bind to kernel 1 '_Z6KernelP4NodePiPbS2_S1_S2_i'
GPGPU-Sim uArch: core:  4, cta: 0 initialized @(1,0)
GPGPU-Sim uArch: Shader 5 bind to kernel 1 '_Z6KernelP4NodePiPbS2_S1_S2_i'
GPGPU-Sim uArch: core:  5, cta: 0 initialized @(1,0)
GPGPU-Sim uArch: Shader 6 bind to kernel 1 '_Z6KernelP4NodePiPbS2_S1_S2_i'
GPGPU-Sim uArch: core:  6, cta: 0 initialized @(1,0)
GPGPU-Sim uArch: Shader 7 bind to kernel 1 '_Z6KernelP4NodePiPbS2_S1_S2_i'
GPGPU-Sim uArch: core:  7, cta: 0 initialized @(1,0)
GPGPU-Sim uArch: Shader 8 bind to kernel 1 '_Z6KernelP4NodePiPbS2_S1_S2_i'
GPGPU-Sim uArch: core:  8, cta: 0 initialized @(1,0)
GPGPU-Sim uArch: Shader 9 bind to kernel 1 '_Z6KernelP4NodePiPbS2_S1_S2_i'
GPGPU-Sim uArch: core:  9, cta: 0 initialized @(1,0)
GPGPU-Sim uArch: Shader 10 bind to kernel 1 '_Z6KernelP4NodePiPbS2_S1_S2_i'
GPGPU-Sim uArch: core: 10, cta: 0 initialized @(1,0)
GPGPU-Sim uArch: Shader 11 bind to kernel 1 '_Z6KernelP4NodePiPbS2_S1_S2_i'
GPGPU-Sim uArch: core: 11, cta: 0 initialized @(1,0)
GPGPU-Sim uArch: Shader 12 bind to kernel 1 '_Z6KernelP4NodePiPbS2_S1_S2_i'
GPGPU-Sim uArch: core: 12, cta: 0 initialized @(1,0)
GPGPU-Sim uArch: Shader 13 bind to kernel 1 '_Z6KernelP4NodePiPbS2_S1_S2_i'
GPGPU-Sim uArch: core: 13, cta: 0 initialized @(1,0)
GPGPU-Sim uArch: Shader 14 bind to kernel 1 '_Z6KernelP4NodePiPbS2_S1_S2_i'
GPGPU-Sim uArch: core: 14, cta: 0 initialized @(1,0)
GPGPU-Sim uArch: Shader 0 bind to kernel 1 '_Z6KernelP4NodePiPbS2_S1_S2_i'
GPGPU-Sim uArch: core:  0, cta: 0 initialized @(1,0)
GPGPU-Sim uArch: core:  1, cta: 1 initialized @(2,0)
GPGPU-Sim uArch: core:  2, cta: 1 initialized @(2,0)
GPGPU-Sim uArch: core:  3, cta: 1 initialized @(2,0)
GPGPU-Sim uArch: core:  4, cta: 1 initialized @(2,0)
GPGPU-Sim uArch: core:  5, cta: 1 initialized @(2,0)
GPGPU-Sim uArch: core:  6, cta: 1 initialized @(2,0)
GPGPU-Sim uArch: core:  7, cta: 1 initialized @(2,0)
GPGPU-Sim uArch: core:  8, cta: 1 initialized @(2,0)
GPGPU-Sim uArch: core:  9, cta: 1 initialized @(2,0)
GPGPU-Sim uArch: core: 10, cta: 1 initialized @(2,0)
GPGPU-Sim uArch: core: 11, cta: 1 initialized @(2,0)
GPGPU-Sim uArch: core: 12, cta: 1 initialized @(2,0)
GPGPU-Sim uArch: core: 13, cta: 1 initialized @(2,0)
GPGPU-Sim uArch: core: 14, cta: 1 initialized @(2,0)
GPGPU-Sim uArch: core:  0, cta: 1 initialized @(2,0)
GPGPU-Sim uArch: core:  1, cta: 2 initialized @(3,0)
GPGPU-Sim uArch: core:  2, cta: 2 initialized @(3,0)
GPGPU-Sim uArch: core:  3, cta: 2 initialized @(3,0)
GPGPU-Sim uArch: core:  4, cta: 2 initialized @(3,0)
GPGPU-Sim uArch: core:  5, cta: 2 initialized @(3,0)
GPGPU-Sim uArch: core:  6, cta: 2 initialized @(3,0)
GPGPU-Sim uArch: core:  7, cta: 2 initialized @(3,0)
GPGPU-Sim uArch: core:  8, cta: 2 initialized @(3,0)
GPGPU-Sim uArch: core:  9, cta: 2 initialized @(3,0)
GPGPU-Sim uArch: core: 10, cta: 2 initialized @(3,0)
GPGPU-Sim uArch: core: 11, cta: 2 initialized @(3,0)
GPGPU-Sim uArch: core: 12, cta: 2 initialized @(3,0)
GPGPU-Sim uArch: core: 13, cta: 2 initialized @(3,0)
GPGPU-Sim uArch: core: 14, cta: 2 initialized @(3,0)
GPGPU-Sim uArch: core:  0, cta: 2 initialized @(3,0)
GPGPU-Sim uArch: core:  1, cta: 3 initialized @(4,0)
GPGPU-Sim uArch: core:  2, cta: 3 initialized @(4,0)
GPGPU-Sim uArch: core:  3, cta: 3 initialized @(4,0)
GPGPU-Sim uArch: core:  4, cta: 3 initialized @(4,0)
GPGPU-Sim uArch: core:  5, cta: 3 initialized @(4,0)
GPGPU-Sim uArch: core:  6, cta: 3 initialized @(4,0)
GPGPU-Sim uArch: core:  7, cta: 3 initialized @(4,0)
GPGPU-Sim uArch: core:  8, cta: 3 initialized @(4,0)
GPGPU-Sim uArch: core:  9, cta: 3 initialized @(4,0)
GPGPU-Sim uArch: core: 10, cta: 3 initialized @(4,0)
GPGPU-Sim uArch: core: 11, cta: 3 initialized @(4,0)
GPGPU-Sim uArch: core: 12, cta: 3 initialized @(4,0)
GPGPU-Sim uArch: core: 13, cta: 3 initialized @(4,0)
GPGPU-Sim uArch: core: 14, cta: 3 initialized @(4,0)
GPGPU-Sim uArch: core:  0, cta: 3 initialized @(4,0)
GPGPU-Sim uArch: core:  1, cta: 4 initialized @(5,0)
GPGPU-Sim uArch: core:  2, cta: 4 initialized @(5,0)
GPGPU-Sim uArch: core:  3, cta: 4 initialized @(5,0)
GPGPU-Sim uArch: core:  4, cta: 4 initialized @(5,0)
GPGPU-Sim uArch: core:  5, cta: 4 initialized @(5,0)
GPGPU-Sim uArch: core:  6, cta: 4 initialized @(5,0)
GPGPU-Sim uArch: core:  7, cta: 4 initialized @(5,0)
GPGPU-Sim uArch: core:  8, cta: 4 initialized @(5,0)
GPGPU-Sim uArch: core:  9, cta: 4 initialized @(5,0)
GPGPU-Sim uArch: core: 10, cta: 4 initialized @(5,0)
GPGPU-Sim uArch: core: 11, cta: 4 initialized @(5,0)
GPGPU-Sim uArch: core: 12, cta: 4 initialized @(5,0)
GPGPU-Sim uArch: core: 13, cta: 4 initialized @(5,0)
GPGPU-Sim uArch: core: 14, cta: 4 initialized @(5,0)
GPGPU-Sim uArch: core:  0, cta: 4 initialized @(5,0)
GPGPU-Sim uArch: core:  1, cta: 5 initialized @(6,0)
GPGPU-Sim uArch: core:  2, cta: 5 initialized @(6,0)
GPGPU-Sim uArch: core:  3, cta: 5 initialized @(6,0)
GPGPU-Sim uArch: core:  4, cta: 5 initialized @(6,0)
GPGPU-Sim uArch: core:  5, cta: 5 initialized @(6,0)
GPGPU-Sim uArch: core:  6, cta: 5 initialized @(6,0)
GPGPU-Sim uArch: core:  7, cta: 5 initialized @(6,0)
GPGPU-Sim uArch: core:  8, cta: 5 initialized @(6,0)
GPGPU-Sim uArch: core:  9, cta: 5 initialized @(6,0)
GPGPU-Sim uArch: core: 10, cta: 5 initialized @(6,0)
GPGPU-Sim uArch: core: 11, cta: 5 initialized @(6,0)
GPGPU-Sim uArch: core: 12, cta: 5 initialized @(6,0)
GPGPU-Sim uArch: core: 13, cta: 5 initialized @(6,0)
GPGPU-Sim uArch: core: 14, cta: 5 initialized @(6,0)
GPGPU-Sim uArch: core:  0, cta: 5 initialized @(6,0)
GPGPU-Sim PTX: 100000 instructions simulated : ctaid=(25,0,0) tid=(159,0,0)
GPGPU-Sim uArch: cycles simulated: 500  inst.: 92160 (ipc=184.3) sim_rate=92160 (inst/sec) elapsed = 0:0:00:01 / Wed May  1 12:42:39 2019
GPGPU-Sim PTX: 200000 instructions simulated : ctaid=(68,0,0) tid=(63,0,0)
GPGPU-Sim PTX: 300000 instructions simulated : ctaid=(37,0,0) tid=(253,0,0)
GPGPU-Sim uArch: Shader 2 finished CTA #5 (1265,0), 5 CTAs running
GPGPU-Sim uArch: Shader 2 finished CTA #0 (1265,0), 4 CTAs running
GPGPU-Sim uArch: Shader 2 finished CTA #1 (1265,0), 3 CTAs running
GPGPU-Sim uArch: Shader 2 finished CTA #2 (1265,0), 2 CTAs running
GPGPU-Sim uArch: core:  2, cta: 0 initialized @(1266,0)
GPGPU-Sim uArch: core:  2, cta: 1 initialized @(1267,0)
GPGPU-Sim uArch: core:  2, cta: 2 initialized @(1268,0)
GPGPU-Sim uArch: core:  2, cta: 5 initialized @(1269,0)
GPGPU-Sim uArch: Shader 3 finished CTA #5 (1271,0), 5 CTAs running
GPGPU-Sim uArch: Shader 3 finished CTA #0 (1271,0), 4 CTAs running
GPGPU-Sim uArch: Shader 3 finished CTA #1 (1271,0), 3 CTAs running
GPGPU-Sim uArch: Shader 3 finished CTA #2 (1271,0), 2 CTAs running
GPGPU-Sim uArch: core:  3, cta: 0 initialized @(1272,0)
GPGPU-Sim uArch: core:  3, cta: 1 initialized @(1273,0)
GPGPU-Sim uArch: core:  3, cta: 2 initialized @(1274,0)
GPGPU-Sim uArch: core:  3, cta: 5 initialized @(1275,0)
GPGPU-Sim uArch: Shader 4 finished CTA #5 (1277,0), 5 CTAs running
GPGPU-Sim uArch: Shader 4 finished CTA #0 (1277,0), 4 CTAs running
GPGPU-Sim uArch: Shader 4 finished CTA #1 (1277,0), 3 CTAs running
GPGPU-Sim uArch: Shader 4 finished CTA #2 (1277,0), 2 CTAs running
GPGPU-Sim uArch: core:  4, cta: 0 initialized @(1278,0)
GPGPU-Sim uArch: core:  4, cta: 1 initialized @(1279,0)
GPGPU-Sim uArch: core:  4, cta: 2 initialized @(1280,0)
GPGPU-Sim uArch: core:  4, cta: 5 initialized @(1281,0)
GPGPU-Sim uArch: Shader 0 finished CTA #5 (1283,0), 5 CTAs running
GPGPU-Sim uArch: Shader 0 finished CTA #0 (1283,0), 4 CTAs running
GPGPU-Sim uArch: Shader 0 finished CTA #1 (1283,0), 3 CTAs running
GPGPU-Sim uArch: Shader 0 finished CTA #2 (1283,0), 2 CTAs running
GPGPU-Sim uArch: core:  0, cta: 0 initialized @(1284,0)
GPGPU-Sim uArch: core:  0, cta: 1 initialized @(1285,0)
GPGPU-Sim uArch: Shader 5 finished CTA #0 (1285,0), 5 CTAs running
GPGPU-Sim uArch: Shader 5 finished CTA #1 (1285,0), 4 CTAs running
GPGPU-Sim uArch: core:  5, cta: 0 initialized @(1286,0)
GPGPU-Sim uArch: core:  0, cta: 2 initialized @(1286,0)
GPGPU-Sim uArch: core:  5, cta: 1 initialized @(1287,0)
GPGPU-Sim uArch: core:  0, cta: 5 initialized @(1287,0)
GPGPU-Sim uArch: Shader 5 finished CTA #3 (1289,0), 5 CTAs running
GPGPU-Sim uArch: core:  5, cta: 3 initialized @(1290,0)
GPGPU-Sim uArch: Shader 2 finished CTA #3 (1290,0), 5 CTAs running
GPGPU-Sim uArch: Shader 2 finished CTA #4 (1290,0), 4 CTAs running
GPGPU-Sim uArch: core:  2, cta: 3 initialized @(1291,0)
GPGPU-Sim uArch: core:  2, cta: 4 initialized @(1292,0)
GPGPU-Sim uArch: Shader 7 finished CTA #0 (1292,0), 5 CTAs running
GPGPU-Sim uArch: core:  7, cta: 0 initialized @(1293,0)
GPGPU-Sim uArch: Shader 6 finished CTA #5 (1295,0), 5 CTAs running
GPGPU-Sim uArch: Shader 6 finished CTA #0 (1295,0), 4 CTAs running
GPGPU-Sim uArch: Shader 6 finished CTA #1 (1295,0), 3 CTAs running
GPGPU-Sim uArch: Shader 6 finished CTA #2 (1295,0), 2 CTAs running
GPGPU-Sim uArch: core:  6, cta: 0 initialized @(1296,0)
GPGPU-Sim uArch: Shader 3 finished CTA #3 (1296,0), 5 CTAs running
GPGPU-Sim uArch: Shader 3 finished CTA #4 (1296,0), 4 CTAs running
GPGPU-Sim uArch: core:  3, cta: 3 initialized @(1297,0)
GPGPU-Sim uArch: core:  6, cta: 1 initialized @(1297,0)
GPGPU-Sim uArch: core:  3, cta: 4 initialized @(1298,0)
GPGPU-Sim uArch: core:  6, cta: 2 initialized @(1298,0)
GPGPU-Sim uArch: core:  6, cta: 5 initialized @(1299,0)
GPGPU-Sim uArch: Shader 1 finished CTA #5 (1300,0), 5 CTAs running
GPGPU-Sim uArch: core:  1, cta: 5 initialized @(1301,0)
GPGPU-Sim uArch: Shader 1 finished CTA #1 (1301,0), 5 CTAs running
GPGPU-Sim uArch: Shader 1 finished CTA #2 (1301,0), 4 CTAs running
GPGPU-Sim uArch: Shader 1 finished CTA #3 (1301,0), 3 CTAs running
GPGPU-Sim uArch: core:  1, cta: 1 initialized @(1302,0)
GPGPU-Sim uArch: Shader 4 finished CTA #3 (1302,0), 5 CTAs running
GPGPU-Sim uArch: Shader 4 finished CTA #4 (1302,0), 4 CTAs running
GPGPU-Sim uArch: core:  4, cta: 3 initialized @(1303,0)
GPGPU-Sim uArch: core:  1, cta: 2 initialized @(1303,0)
GPGPU-Sim uArch: core:  4, cta: 4 initialized @(1304,0)
GPGPU-Sim uArch: core:  1, cta: 3 initialized @(1304,0)
GPGPU-Sim uArch: Shader 5 finished CTA #2 (1305,0), 5 CTAs running
GPGPU-Sim uArch: core:  5, cta: 2 initialized @(1306,0)
GPGPU-Sim uArch: Shader 8 finished CTA #4 (1307,0), 5 CTAs running
GPGPU-Sim uArch: Shader 8 finished CTA #5 (1307,0), 4 CTAs running
GPGPU-Sim uArch: Shader 8 finished CTA #0 (1307,0), 3 CTAs running
GPGPU-Sim uArch: Shader 8 finished CTA #1 (1307,0), 2 CTAs running
GPGPU-Sim uArch: Shader 8 finished CTA #2 (1307,0), 1 CTAs running
GPGPU-Sim uArch: core:  8, cta: 0 initialized @(1308,0)
GPGPU-Sim uArch: Shader 0 finished CTA #3 (1308,0), 5 CTAs running
GPGPU-Sim uArch: Shader 0 finished CTA #4 (1308,0), 4 CTAs running
GPGPU-Sim uArch: core:  0, cta: 3 initialized @(1309,0)
GPGPU-Sim uArch: core:  8, cta: 1 initialized @(1309,0)
GPGPU-Sim uArch: core:  0, cta: 4 initialized @(1310,0)
GPGPU-Sim uArch: core:  8, cta: 2 initialized @(1310,0)
GPGPU-Sim uArch: core:  8, cta: 4 initialized @(1311,0)
GPGPU-Sim uArch: core:  8, cta: 5 initialized @(1312,0)
GPGPU-Sim uArch: Shader 5 finished CTA #4 (1313,0), 5 CTAs running
GPGPU-Sim uArch: Shader 5 finished CTA #5 (1313,0), 4 CTAs running
GPGPU-Sim uArch: Shader 7 finished CTA #4 (1313,0), 5 CTAs running
GPGPU-Sim uArch: Shader 7 finished CTA #5 (1313,0), 4 CTAs running
GPGPU-Sim uArch: core:  5, cta: 4 initialized @(1314,0)
GPGPU-Sim uArch: core:  7, cta: 4 initialized @(1314,0)
GPGPU-Sim uArch: core:  5, cta: 5 initialized @(1315,0)
GPGPU-Sim uArch: core:  7, cta: 5 initialized @(1315,0)
GPGPU-Sim uArch: Shader 14 finished CTA #0 (1315,0), 5 CTAs running
GPGPU-Sim uArch: core: 14, cta: 0 initialized @(1316,0)
GPGPU-Sim uArch: Shader 9 finished CTA #5 (1319,0), 5 CTAs running
GPGPU-Sim uArch: Shader 9 finished CTA #0 (1319,0), 4 CTAs running
GPGPU-Sim uArch: Shader 9 finished CTA #1 (1319,0), 3 CTAs running
GPGPU-Sim uArch: Shader 9 finished CTA #2 (1319,0), 2 CTAs running
GPGPU-Sim uArch: core:  9, cta: 0 initialized @(1320,0)
GPGPU-Sim uArch: Shader 6 finished CTA #3 (1320,0), 5 CTAs running
GPGPU-Sim uArch: Shader 6 finished CTA #4 (1320,0), 4 CTAs running
GPGPU-Sim uArch: core:  6, cta: 3 initialized @(1321,0)
GPGPU-Sim uArch: core:  9, cta: 1 initialized @(1321,0)
GPGPU-Sim uArch: Shader 7 finished CTA #1 (1321,0), 5 CTAs running
GPGPU-Sim uArch: Shader 7 finished CTA #2 (1321,0), 4 CTAs running
GPGPU-Sim uArch: Shader 7 finished CTA #3 (1321,0), 3 CTAs running
GPGPU-Sim uArch: core:  6, cta: 4 initialized @(1322,0)
GPGPU-Sim uArch: core:  7, cta: 1 initialized @(1322,0)
GPGPU-Sim uArch: core:  9, cta: 2 initialized @(1322,0)
GPGPU-Sim uArch: core:  7, cta: 2 initialized @(1323,0)
GPGPU-Sim uArch: core:  9, cta: 5 initialized @(1323,0)
GPGPU-Sim uArch: core:  7, cta: 3 initialized @(1324,0)
GPGPU-Sim uArch: Shader 11 finished CTA #0 (1325,0), 5 CTAs running
GPGPU-Sim uArch: Shader 11 finished CTA #1 (1325,0), 4 CTAs running
GPGPU-Sim uArch: Shader 11 finished CTA #2 (1325,0), 3 CTAs running
GPGPU-Sim uArch: Shader 11 finished CTA #3 (1325,0), 2 CTAs running
GPGPU-Sim uArch: core: 11, cta: 0 initialized @(1326,0)
GPGPU-Sim uArch: core: 11, cta: 1 initialized @(1327,0)
GPGPU-Sim uArch: Shader 13 finished CTA #0 (1327,0), 5 CTAs running
GPGPU-Sim uArch: Shader 13 finished CTA #1 (1327,0), 4 CTAs running
GPGPU-Sim uArch: core: 13, cta: 0 initialized @(1328,0)
GPGPU-Sim uArch: core: 11, cta: 2 initialized @(1328,0)
GPGPU-Sim uArch: core: 13, cta: 1 initialized @(1329,0)
GPGPU-Sim uArch: core: 11, cta: 3 initialized @(1329,0)
GPGPU-Sim uArch: Shader 13 finished CTA #3 (1331,0), 5 CTAs running
GPGPU-Sim uArch: Shader 13 finished CTA #4 (1331,0), 4 CTAs running
GPGPU-Sim uArch: core: 13, cta: 3 initialized @(1332,0)
GPGPU-Sim uArch: Shader 8 finished CTA #3 (1332,0), 5 CTAs running
GPGPU-Sim uArch: core:  8, cta: 3 initialized @(1333,0)
GPGPU-Sim uArch: core: 13, cta: 4 initialized @(1333,0)
GPGPU-Sim uArch: Shader 1 finished CTA #4 (1334,0), 5 CTAs running
GPGPU-Sim uArch: core:  1, cta: 4 initialized @(1335,0)
GPGPU-Sim uArch: Shader 14 finished CTA #5 (1337,0), 5 CTAs running
GPGPU-Sim uArch: core: 14, cta: 5 initialized @(1338,0)
GPGPU-Sim uArch: Shader 12 finished CTA #0 (1343,0), 5 CTAs running
GPGPU-Sim uArch: Shader 12 finished CTA #1 (1343,0), 4 CTAs running
GPGPU-Sim uArch: Shader 12 finished CTA #2 (1343,0), 3 CTAs running
GPGPU-Sim uArch: Shader 12 finished CTA #3 (1343,0), 2 CTAs running
GPGPU-Sim uArch: core: 12, cta: 0 initialized @(1344,0)
GPGPU-Sim uArch: Shader 9 finished CTA #3 (1344,0), 5 CTAs running
GPGPU-Sim uArch: Shader 9 finished CTA #4 (1344,0), 4 CTAs running
GPGPU-Sim uArch: core:  9, cta: 3 initialized @(1345,0)
GPGPU-Sim uArch: core: 12, cta: 1 initialized @(1345,0)
GPGPU-Sim uArch: Shader 14 finished CTA #1 (1345,0), 5 CTAs running
GPGPU-Sim uArch: Shader 14 finished CTA #2 (1345,0), 4 CTAs running
GPGPU-Sim uArch: Shader 14 finished CTA #3 (1345,0), 3 CTAs running
GPGPU-Sim uArch: Shader 14 finished CTA #4 (1345,0), 2 CTAs running
GPGPU-Sim uArch: core: 14, cta: 1 initialized @(1346,0)
GPGPU-Sim uArch: core:  9, cta: 4 initialized @(1346,0)
GPGPU-Sim uArch: core: 12, cta: 2 initialized @(1346,0)
GPGPU-Sim uArch: core: 14, cta: 2 initialized @(1347,0)
GPGPU-Sim uArch: core: 12, cta: 3 initialized @(1347,0)
GPGPU-Sim uArch: Shader 13 finished CTA #2 (1347,0), 5 CTAs running
GPGPU-Sim uArch: core: 13, cta: 2 initialized @(1348,0)
GPGPU-Sim uArch: core: 14, cta: 3 initialized @(1348,0)
GPGPU-Sim uArch: core: 14, cta: 4 initialized @(1349,0)
GPGPU-Sim uArch: Shader 10 finished CTA #4 (1349,0), 5 CTAs running
GPGPU-Sim uArch: Shader 10 finished CTA #5 (1349,0), 4 CTAs running
GPGPU-Sim uArch: Shader 10 finished CTA #0 (1349,0), 3 CTAs running
GPGPU-Sim uArch: Shader 10 finished CTA #1 (1349,0), 2 CTAs running
GPGPU-Sim uArch: Shader 10 finished CTA #2 (1349,0), 1 CTAs running
GPGPU-Sim uArch: core: 10, cta: 0 initialized @(1350,0)
GPGPU-Sim uArch: core: 10, cta: 1 initialized @(1351,0)
GPGPU-Sim uArch: core: 10, cta: 2 initialized @(1352,0)
GPGPU-Sim uArch: core: 10, cta: 4 initialized @(1353,0)
GPGPU-Sim uArch: core: 10, cta: 5 initialized @(1354,0)
GPGPU-Sim uArch: Shader 11 finished CTA #4 (1358,0), 5 CTAs running
GPGPU-Sim uArch: Shader 11 finished CTA #5 (1358,0), 4 CTAs running
GPGPU-Sim uArch: core: 11, cta: 4 initialized @(1359,0)
GPGPU-Sim uArch: core: 11, cta: 5 initialized @(1360,0)
GPGPU-Sim uArch: Shader 13 finished CTA #5 (1363,0), 5 CTAs running
GPGPU-Sim uArch: core: 13, cta: 5 initialized @(1364,0)
GPGPU-Sim uArch: Shader 10 finished CTA #3 (1374,0), 5 CTAs running
GPGPU-Sim PTX: 400000 instructions simulated : ctaid=(147,0,0) tid=(215,0,0)
GPGPU-Sim uArch: core: 10, cta: 3 initialized @(1375,0)
GPGPU-Sim uArch: Shader 12 finished CTA #4 (1376,0), 5 CTAs running
GPGPU-Sim uArch: Shader 12 finished CTA #5 (1376,0), 4 CTAs running
GPGPU-Sim uArch: core: 12, cta: 4 initialized @(1377,0)
GPGPU-Sim uArch: core: 12, cta: 5 initialized @(1378,0)
GPGPU-Sim PTX: 500000 instructions simulated : ctaid=(141,0,0) tid=(85,0,0)
GPGPU-Sim uArch: cycles simulated: 1500  inst.: 468616 (ipc=312.4) sim_rate=234308 (inst/sec) elapsed = 0:0:00:02 / Wed May  1 12:42:40 2019
GPGPU-Sim PTX: 600000 instructions simulated : ctaid=(158,0,0) tid=(149,0,0)
GPGPU-Sim uArch: Shader 2 finished CTA #0 (1758,0), 5 CTAs running
GPGPU-Sim uArch: core:  2, cta: 0 initialized @(1759,0)
GPGPU-Sim uArch: Shader 4 finished CTA #0 (1768,0), 5 CTAs running
GPGPU-Sim uArch: core:  4, cta: 0 initialized @(1769,0)
GPGPU-Sim uArch: Shader 0 finished CTA #0 (1778,0), 5 CTAs running
GPGPU-Sim uArch: core:  0, cta: 0 initialized @(1779,0)
GPGPU-Sim uArch: Shader 2 finished CTA #1 (1780,0), 5 CTAs running
GPGPU-Sim uArch: Shader 5 finished CTA #0 (1780,0), 5 CTAs running
GPGPU-Sim uArch: core:  2, cta: 1 initialized @(1781,0)
GPGPU-Sim uArch: core:  5, cta: 0 initialized @(1781,0)
GPGPU-Sim uArch: Shader 1 finished CTA #5 (1782,0), 5 CTAs running
GPGPU-Sim uArch: Shader 1 finished CTA #1 (1782,0), 4 CTAs running
GPGPU-Sim uArch: core:  1, cta: 1 initialized @(1783,0)
GPGPU-Sim uArch: core:  1, cta: 5 initialized @(1784,0)
GPGPU-Sim uArch: Shader 8 finished CTA #0 (1795,0), 5 CTAs running
GPGPU-Sim uArch: core:  8, cta: 0 initialized @(1796,0)
GPGPU-Sim uArch: Shader 0 finished CTA #1 (1798,0), 5 CTAs running
GPGPU-Sim uArch: Shader 3 finished CTA #0 (1798,0), 5 CTAs running
GPGPU-Sim uArch: Shader 3 finished CTA #1 (1798,0), 4 CTAs running
GPGPU-Sim uArch: core:  0, cta: 1 initialized @(1799,0)
GPGPU-Sim uArch: core:  3, cta: 0 initialized @(1799,0)
GPGPU-Sim uArch: core:  3, cta: 1 initialized @(1800,0)
GPGPU-Sim uArch: Shader 5 finished CTA #1 (1802,0), 5 CTAs running
GPGPU-Sim uArch: core:  5, cta: 1 initialized @(1803,0)
GPGPU-Sim uArch: Shader 6 finished CTA #1 (1803,0), 5 CTAs running
GPGPU-Sim uArch: Shader 7 finished CTA #0 (1803,0), 5 CTAs running
GPGPU-Sim uArch: core:  6, cta: 1 initialized @(1804,0)
GPGPU-Sim uArch: core:  7, cta: 0 initialized @(1804,0)
GPGPU-Sim uArch: Shader 8 finished CTA #1 (1811,0), 5 CTAs running
GPGPU-Sim uArch: core:  8, cta: 1 initialized @(1812,0)
GPGPU-Sim uArch: Shader 6 finished CTA #0 (1815,0), 5 CTAs running
GPGPU-Sim uArch: core:  6, cta: 0 initialized @(1816,0)
GPGPU-Sim uArch: Shader 14 finished CTA #0 (1816,0), 5 CTAs running
GPGPU-Sim uArch: core: 14, cta: 0 initialized @(1817,0)
GPGPU-Sim uArch: Shader 11 finished CTA #0 (1819,0), 5 CTAs running
GPGPU-Sim uArch: core: 11, cta: 0 initialized @(1820,0)
GPGPU-Sim uArch: Shader 3 finished CTA #2 (1823,0), 5 CTAs running
GPGPU-Sim uArch: Shader 6 finished CTA #2 (1823,0), 5 CTAs running
GPGPU-Sim uArch: core:  3, cta: 2 initialized @(1824,0)
GPGPU-Sim uArch: core:  6, cta: 2 initialized @(1824,0)
GPGPU-Sim uArch: Shader 1 finished CTA #2 (1825,0), 5 CTAs running
GPGPU-Sim uArch: core:  1, cta: 2 initialized @(1826,0)
GPGPU-Sim uArch: Shader 3 finished CTA #5 (1827,0), 5 CTAs running
GPGPU-Sim uArch: core:  3, cta: 5 initialized @(1828,0)
GPGPU-Sim uArch: Shader 5 finished CTA #3 (1830,0), 5 CTAs running
GPGPU-Sim uArch: core:  5, cta: 3 initialized @(1831,0)
GPGPU-Sim uArch: Shader 11 finished CTA #1 (1835,0), 5 CTAs running
GPGPU-Sim uArch: core: 11, cta: 1 initialized @(1836,0)
GPGPU-Sim uArch: Shader 4 finished CTA #1 (1836,0), 5 CTAs running
GPGPU-Sim uArch: Shader 4 finished CTA #2 (1836,0), 4 CTAs running
GPGPU-Sim uArch: core:  4, cta: 1 initialized @(1837,0)
GPGPU-Sim uArch: core:  4, cta: 2 initialized @(1838,0)
GPGPU-Sim uArch: Shader 2 finished CTA #2 (1839,0), 5 CTAs running
GPGPU-Sim uArch: core:  2, cta: 2 initialized @(1840,0)
GPGPU-Sim uArch: Shader 2 finished CTA #5 (1843,0), 5 CTAs running
GPGPU-Sim uArch: Shader 9 finished CTA #1 (1843,0), 5 CTAs running
GPGPU-Sim uArch: core:  9, cta: 1 initialized @(1844,0)
GPGPU-Sim uArch: core:  2, cta: 5 initialized @(1844,0)
GPGPU-Sim uArch: Shader 13 finished CTA #0 (1848,0), 5 CTAs running
GPGPU-Sim uArch: core: 13, cta: 0 initialized @(1849,0)
GPGPU-Sim uArch: Shader 12 finished CTA #1 (1852,0), 5 CTAs running
GPGPU-Sim uArch: core: 12, cta: 1 initialized @(1853,0)
GPGPU-Sim uArch: Shader 0 finished CTA #2 (1858,0), 5 CTAs running
GPGPU-Sim uArch: Shader 9 finished CTA #0 (1858,0), 5 CTAs running
GPGPU-Sim uArch: core:  0, cta: 2 initialized @(1859,0)
GPGPU-Sim uArch: core:  9, cta: 0 initialized @(1859,0)
GPGPU-Sim uArch: Shader 4 finished CTA #5 (1865,0), 5 CTAs running
GPGPU-Sim uArch: core:  4, cta: 5 initialized @(1866,0)
GPGPU-Sim uArch: Shader 12 finished CTA #0 (1866,0), 5 CTAs running
GPGPU-Sim uArch: core: 12, cta: 0 initialized @(1867,0)
GPGPU-Sim uArch: Shader 13 finished CTA #1 (1869,0), 5 CTAs running
GPGPU-Sim uArch: core: 13, cta: 1 initialized @(1870,0)
GPGPU-Sim uArch: Shader 0 finished CTA #5 (1870,0), 5 CTAs running
GPGPU-Sim uArch: core:  0, cta: 5 initialized @(1871,0)
GPGPU-Sim uArch: Shader 8 finished CTA #2 (1873,0), 5 CTAs running
GPGPU-Sim uArch: Shader 8 finished CTA #4 (1873,0), 4 CTAs running
GPGPU-Sim uArch: core:  8, cta: 2 initialized @(1874,0)
GPGPU-Sim uArch: Shader 12 finished CTA #2 (1874,0), 5 CTAs running
GPGPU-Sim uArch: core: 12, cta: 2 initialized @(1875,0)
GPGPU-Sim uArch: core:  8, cta: 4 initialized @(1875,0)
GPGPU-Sim PTX: 700000 instructions simulated : ctaid=(191,0,0) tid=(109,0,0)
GPGPU-Sim uArch: Shader 14 finished CTA #1 (1877,0), 5 CTAs running
GPGPU-Sim uArch: core: 14, cta: 1 initialized @(1878,0)
GPGPU-Sim uArch: Shader 5 finished CTA #2 (1878,0), 5 CTAs running
GPGPU-Sim uArch: core:  5, cta: 2 initialized @(1879,0)
GPGPU-Sim uArch: Shader 10 finished CTA #0 (1880,0), 5 CTAs running
GPGPU-Sim uArch: core: 10, cta: 0 initialized @(1881,0)
GPGPU-Sim uArch: Shader 10 finished CTA #2 (1884,0), 5 CTAs running
GPGPU-Sim uArch: core: 10, cta: 2 initialized @(1885,0)
GPGPU-Sim uArch: Shader 6 finished CTA #5 (1889,0), 5 CTAs running
GPGPU-Sim uArch: core:  6, cta: 5 initialized @(1890,0)
GPGPU-Sim uArch: Shader 7 finished CTA #4 (1890,0), 5 CTAs running
GPGPU-Sim uArch: core:  7, cta: 4 initialized @(1891,0)
GPGPU-Sim uArch: Shader 9 finished CTA #2 (1892,0), 5 CTAs running
GPGPU-Sim uArch: core:  9, cta: 2 initialized @(1893,0)
GPGPU-Sim uArch: Shader 11 finished CTA #2 (1899,0), 5 CTAs running
GPGPU-Sim uArch: Shader 11 finished CTA #3 (1899,0), 4 CTAs running
GPGPU-Sim uArch: core: 11, cta: 2 initialized @(1900,0)
GPGPU-Sim uArch: Shader 9 finished CTA #5 (1900,0), 5 CTAs running
GPGPU-Sim uArch: core:  9, cta: 5 initialized @(1901,0)
GPGPU-Sim uArch: core: 11, cta: 3 initialized @(1901,0)
GPGPU-Sim uArch: Shader 13 finished CTA #3 (1901,0), 5 CTAs running
GPGPU-Sim uArch: core: 13, cta: 3 initialized @(1902,0)
GPGPU-Sim uArch: Shader 7 finished CTA #1 (1904,0), 5 CTAs running
GPGPU-Sim uArch: Shader 10 finished CTA #1 (1904,0), 5 CTAs running
GPGPU-Sim uArch: core:  7, cta: 1 initialized @(1905,0)
GPGPU-Sim uArch: core: 10, cta: 1 initialized @(1905,0)
GPGPU-Sim uArch: Shader 10 finished CTA #4 (1912,0), 5 CTAs running
GPGPU-Sim uArch: Shader 14 finished CTA #2 (1912,0), 5 CTAs running
GPGPU-Sim uArch: core: 14, cta: 2 initialized @(1913,0)
GPGPU-Sim uArch: core: 10, cta: 4 initialized @(1913,0)
GPGPU-Sim uArch: Shader 3 finished CTA #3 (1921,0), 5 CTAs running
GPGPU-Sim uArch: core:  3, cta: 3 initialized @(1922,0)
GPGPU-Sim uArch: Shader 7 finished CTA #5 (1922,0), 5 CTAs running
GPGPU-Sim uArch: core:  7, cta: 5 initialized @(1923,0)
GPGPU-Sim uArch: Shader 13 finished CTA #4 (1930,0), 5 CTAs running
GPGPU-Sim uArch: core: 13, cta: 4 initialized @(1931,0)
GPGPU-Sim uArch: Shader 1 finished CTA #3 (1934,0), 5 CTAs running
GPGPU-Sim uArch: Shader 1 finished CTA #4 (1934,0), 4 CTAs running
GPGPU-Sim uArch: core:  1, cta: 3 initialized @(1935,0)
GPGPU-Sim uArch: core:  1, cta: 4 initialized @(1936,0)
GPGPU-Sim uArch: Shader 0 finished CTA #3 (1937,0), 5 CTAs running
GPGPU-Sim uArch: Shader 7 finished CTA #2 (1937,0), 5 CTAs running
GPGPU-Sim uArch: core:  7, cta: 2 initialized @(1938,0)
GPGPU-Sim uArch: core:  0, cta: 3 initialized @(1938,0)
GPGPU-Sim uArch: Shader 12 finished CTA #3 (1938,0), 5 CTAs running
GPGPU-Sim uArch: core: 12, cta: 3 initialized @(1939,0)
GPGPU-Sim uArch: Shader 6 finished CTA #3 (1952,0), 5 CTAs running
GPGPU-Sim uArch: core:  6, cta: 3 initialized @(1953,0)
GPGPU-Sim uArch: Shader 14 finished CTA #5 (1959,0), 5 CTAs running
GPGPU-Sim uArch: core: 14, cta: 5 initialized @(1960,0)
GPGPU-Sim uArch: Shader 9 finished CTA #3 (1964,0), 5 CTAs running
GPGPU-Sim uArch: core:  9, cta: 3 initialized @(1965,0)
GPGPU-Sim uArch: Shader 3 finished CTA #4 (1965,0), 5 CTAs running
GPGPU-Sim uArch: core:  3, cta: 4 initialized @(1966,0)
GPGPU-Sim uArch: Shader 4 finished CTA #3 (1970,0), 5 CTAs running
GPGPU-Sim uArch: Shader 4 finished CTA #4 (1970,0), 4 CTAs running
GPGPU-Sim uArch: core:  4, cta: 3 initialized @(1971,0)
GPGPU-Sim uArch: core:  4, cta: 4 initialized @(1972,0)
GPGPU-Sim uArch: Shader 2 finished CTA #3 (1977,0), 5 CTAs running
GPGPU-Sim uArch: Shader 2 finished CTA #4 (1977,0), 4 CTAs running
GPGPU-Sim uArch: core:  2, cta: 3 initialized @(1978,0)
GPGPU-Sim uArch: Shader 12 finished CTA #4 (1978,0), 5 CTAs running
GPGPU-Sim uArch: core: 12, cta: 4 initialized @(1979,0)
GPGPU-Sim uArch: core:  2, cta: 4 initialized @(1979,0)
GPGPU-Sim uArch: Shader 0 finished CTA #4 (1981,0), 5 CTAs running
GPGPU-Sim uArch: Shader 11 finished CTA #4 (1981,0), 5 CTAs running
GPGPU-Sim uArch: core: 11, cta: 4 initialized @(1982,0)
GPGPU-Sim uArch: core:  0, cta: 4 initialized @(1982,0)
GPGPU-Sim uArch: Shader 14 finished CTA #3 (1982,0), 5 CTAs running
GPGPU-Sim uArch: core: 14, cta: 3 initialized @(1983,0)
GPGPU-Sim uArch: Shader 13 finished CTA #2 (1993,0), 5 CTAs running
GPGPU-Sim uArch: core: 13, cta: 2 initialized @(1994,0)
GPGPU-Sim PTX: 800000 instructions simulated : ctaid=(224,0,0) tid=(203,0,0)
GPGPU-Sim uArch: Shader 6 finished CTA #4 (1996,0), 5 CTAs running
GPGPU-Sim uArch: core:  6, cta: 4 initialized @(1997,0)
GPGPU-Sim uArch: Shader 8 finished CTA #5 (1997,0), 5 CTAs running
GPGPU-Sim uArch: Shader 5 finished CTA #4 (2005,0), 5 CTAs running
GPGPU-Sim uArch: Shader 5 finished CTA #5 (2005,0), 4 CTAs running
GPGPU-Sim uArch: Shader 7 finished CTA #3 (2021,0), 5 CTAs running
GPGPU-Sim uArch: Shader 8 finished CTA #3 (2021,0), 4 CTAs running
GPGPU-Sim uArch: Shader 14 finished CTA #4 (2026,0), 5 CTAs running
GPGPU-Sim uArch: Shader 10 finished CTA #5 (2027,0), 5 CTAs running
GPGPU-Sim uArch: Shader 11 finished CTA #5 (2029,0), 5 CTAs running
GPGPU-Sim uArch: Shader 9 finished CTA #4 (2048,0), 5 CTAs running
GPGPU-Sim uArch: Shader 10 finished CTA #3 (2051,0), 4 CTAs running
GPGPU-Sim uArch: Shader 13 finished CTA #5 (2053,0), 5 CTAs running
GPGPU-Sim uArch: Shader 12 finished CTA #5 (2070,0), 5 CTAs running
GPGPU-Sim PTX: 900000 instructions simulated : ctaid=(248,0,0) tid=(171,0,0)
GPGPU-Sim uArch: Shader 4 finished CTA #0 (2200,0), 5 CTAs running
GPGPU-Sim uArch: Shader 2 finished CTA #0 (2210,0), 5 CTAs running
GPGPU-Sim uArch: Shader 1 finished CTA #5 (2212,0), 5 CTAs running
GPGPU-Sim uArch: Shader 7 finished CTA #0 (2214,0), 4 CTAs running
GPGPU-Sim uArch: Shader 1 finished CTA #1 (2223,0), 4 CTAs running
GPGPU-Sim uArch: Shader 0 finished CTA #0 (2244,0), 5 CTAs running
GPGPU-Sim uArch: Shader 14 finished CTA #0 (2249,0), 4 CTAs running
GPGPU-Sim uArch: Shader 2 finished CTA #1 (2257,0), 4 CTAs running
GPGPU-Sim uArch: Shader 8 finished CTA #0 (2257,0), 3 CTAs running
GPGPU-Sim uArch: Shader 6 finished CTA #1 (2269,0), 5 CTAs running
GPGPU-Sim uArch: Shader 3 finished CTA #0 (2272,0), 5 CTAs running
GPGPU-Sim uArch: Shader 5 finished CTA #0 (2272,0), 3 CTAs running
GPGPU-Sim uArch: Shader 5 finished CTA #1 (2281,0), 2 CTAs running
GPGPU-Sim uArch: Shader 3 finished CTA #1 (2285,0), 4 CTAs running
GPGPU-Sim uArch: Shader 11 finished CTA #0 (2285,0), 4 CTAs running
GPGPU-Sim uArch: Shader 0 finished CTA #1 (2296,0), 4 CTAs running
GPGPU-Sim uArch: Shader 6 finished CTA #0 (2300,0), 4 CTAs running
GPGPU-Sim uArch: Shader 1 finished CTA #2 (2303,0), 3 CTAs running
GPGPU-Sim uArch: Shader 13 finished CTA #0 (2308,0), 4 CTAs running
GPGPU-Sim uArch: Shader 4 finished CTA #1 (2314,0), 4 CTAs running
GPGPU-Sim uArch: Shader 8 finished CTA #1 (2321,0), 2 CTAs running
GPGPU-Sim uArch: Shader 9 finished CTA #1 (2326,0), 4 CTAs running
GPGPU-Sim uArch: Shader 3 finished CTA #2 (2328,0), 3 CTAs running
GPGPU-Sim uArch: Shader 5 finished CTA #3 (2337,0), 1 CTAs running
GPGPU-Sim uArch: Shader 12 finished CTA #1 (2340,0), 4 CTAs running
GPGPU-Sim uArch: Shader 5 finished CTA #2 (2349,0), 0 CTAs running
GPGPU-Sim uArch: Shader 5 empty (release kernel 1 '_Z6KernelP4NodePiPbS2_S1_S2_i').
GPGPU-Sim uArch: Shader 2 finished CTA #5 (2353,0), 3 CTAs running
GPGPU-Sim uArch: Shader 8 finished CTA #2 (2353,0), 1 CTAs running
GPGPU-Sim uArch: Shader 9 finished CTA #0 (2353,0), 3 CTAs running
GPGPU-Sim uArch: Shader 2 finished CTA #2 (2357,0), 2 CTAs running
GPGPU-Sim uArch: Shader 4 finished CTA #2 (2357,0), 3 CTAs running
GPGPU-Sim uArch: Shader 13 finished CTA #1 (2357,0), 3 CTAs running
GPGPU-Sim uArch: Shader 10 finished CTA #0 (2359,0), 3 CTAs running
GPGPU-Sim uArch: Shader 1 finished CTA #3 (2360,0), 2 CTAs running
GPGPU-Sim uArch: Shader 14 finished CTA #1 (2361,0), 3 CTAs running
GPGPU-Sim uArch: Shader 11 finished CTA #1 (2368,0), 3 CTAs running
GPGPU-Sim uArch: Shader 8 finished CTA #4 (2370,0), 0 CTAs running
GPGPU-Sim uArch: Shader 8 empty (release kernel 1 '_Z6KernelP4NodePiPbS2_S1_S2_i').
GPGPU-Sim uArch: Shader 12 finished CTA #0 (2372,0), 3 CTAs running
GPGPU-Sim uArch: Shader 10 finished CTA #2 (2373,0), 2 CTAs running
GPGPU-Sim uArch: Shader 1 finished CTA #4 (2379,0), 1 CTAs running
GPGPU-Sim uArch: Shader 7 finished CTA #4 (2380,0), 3 CTAs running
GPGPU-Sim uArch: Shader 6 finished CTA #2 (2385,0), 3 CTAs running
GPGPU-Sim uArch: Shader 0 finished CTA #2 (2386,0), 3 CTAs running
GPGPU-Sim uArch: Shader 4 finished CTA #5 (2387,0), 2 CTAs running
GPGPU-Sim uArch: Shader 3 finished CTA #5 (2391,0), 2 CTAs running
GPGPU-Sim uArch: Shader 10 finished CTA #1 (2392,0), 1 CTAs running
GPGPU-Sim uArch: Shader 7 finished CTA #1 (2394,0), 2 CTAs running
GPGPU-Sim uArch: Shader 14 finished CTA #2 (2397,0), 2 CTAs running
GPGPU-Sim uArch: Shader 0 finished CTA #5 (2399,0), 2 CTAs running
GPGPU-Sim uArch: Shader 11 finished CTA #2 (2403,0), 2 CTAs running
GPGPU-Sim uArch: Shader 13 finished CTA #3 (2404,0), 2 CTAs running
GPGPU-Sim uArch: Shader 9 finished CTA #2 (2405,0), 2 CTAs running
GPGPU-Sim uArch: Shader 12 finished CTA #2 (2409,0), 2 CTAs running
GPGPU-Sim uArch: Shader 11 finished CTA #3 (2416,0), 1 CTAs running
GPGPU-Sim uArch: Shader 9 finished CTA #5 (2418,0), 1 CTAs running
GPGPU-Sim uArch: Shader 7 finished CTA #5 (2419,0), 1 CTAs running
GPGPU-Sim uArch: Shader 6 finished CTA #5 (2420,0), 2 CTAs running
GPGPU-Sim uArch: Shader 2 finished CTA #3 (2429,0), 1 CTAs running
GPGPU-Sim uArch: Shader 10 finished CTA #4 (2431,0), 0 CTAs running
GPGPU-Sim uArch: Shader 10 empty (release kernel 1 '_Z6KernelP4NodePiPbS2_S1_S2_i').
GPGPU-Sim uArch: Shader 13 finished CTA #4 (2438,0), 1 CTAs running
GPGPU-Sim uArch: Shader 4 finished CTA #3 (2439,0), 1 CTAs running
GPGPU-Sim uArch: Shader 14 finished CTA #5 (2440,0), 1 CTAs running
GPGPU-Sim uArch: Shader 0 finished CTA #3 (2442,0), 1 CTAs running
GPGPU-Sim uArch: Shader 2 finished CTA #4 (2442,0), 0 CTAs running
GPGPU-Sim uArch: Shader 2 empty (release kernel 1 '_Z6KernelP4NodePiPbS2_S1_S2_i').
GPGPU-Sim uArch: Shader 3 finished CTA #3 (2447,0), 1 CTAs running
GPGPU-Sim uArch: Shader 6 finished CTA #3 (2450,0), 1 CTAs running
GPGPU-Sim uArch: Shader 11 finished CTA #4 (2454,0), 0 CTAs running
GPGPU-Sim uArch: Shader 11 empty (release kernel 1 '_Z6KernelP4NodePiPbS2_S1_S2_i').
GPGPU-Sim uArch: Shader 12 finished CTA #3 (2454,0), 1 CTAs running
GPGPU-Sim uArch: Shader 4 finished CTA #4 (2455,0), 0 CTAs running
GPGPU-Sim uArch: Shader 4 empty (release kernel 1 '_Z6KernelP4NodePiPbS2_S1_S2_i').
GPGPU-Sim uArch: Shader 3 finished CTA #4 (2456,0), 0 CTAs running
GPGPU-Sim uArch: Shader 3 empty (release kernel 1 '_Z6KernelP4NodePiPbS2_S1_S2_i').
GPGPU-Sim uArch: Shader 7 finished CTA #2 (2458,0), 0 CTAs running
GPGPU-Sim uArch: Shader 7 empty (release kernel 1 '_Z6KernelP4NodePiPbS2_S1_S2_i').
GPGPU-Sim uArch: Shader 14 finished CTA #3 (2459,0), 0 CTAs running
GPGPU-Sim uArch: Shader 14 empty (release kernel 1 '_Z6KernelP4NodePiPbS2_S1_S2_i').
GPGPU-Sim uArch: Shader 0 finished CTA #4 (2461,0), 0 CTAs running
GPGPU-Sim uArch: Shader 0 empty (release kernel 1 '_Z6KernelP4NodePiPbS2_S1_S2_i').
GPGPU-Sim uArch: Shader 9 finished CTA #3 (2461,0), 0 CTAs running
GPGPU-Sim uArch: Shader 9 empty (release kernel 1 '_Z6KernelP4NodePiPbS2_S1_S2_i').
GPGPU-Sim uArch: Shader 13 finished CTA #2 (2463,0), 0 CTAs running
GPGPU-Sim uArch: Shader 13 empty (release kernel 1 '_Z6KernelP4NodePiPbS2_S1_S2_i').
GPGPU-Sim uArch: Shader 12 finished CTA #4 (2469,0), 0 CTAs running
GPGPU-Sim uArch: Shader 12 empty (release kernel 1 '_Z6KernelP4NodePiPbS2_S1_S2_i').
GPGPU-Sim uArch: Shader 6 finished CTA #4 (2475,0), 0 CTAs running
GPGPU-Sim uArch: Shader 6 empty (release kernel 1 '_Z6KernelP4NodePiPbS2_S1_S2_i').
GPGPU-Sim uArch: cycles simulated: 2500  inst.: 917493 (ipc=367.0) sim_rate=305831 (inst/sec) elapsed = 0:0:00:03 / Wed May  1 12:42:41 2019
GPGPU-Sim uArch: Shader 1 finished CTA #0 (5947,0), 0 CTAs running
GPGPU-Sim uArch: Shader 1 empty (release kernel 1 '_Z6KernelP4NodePiPbS2_S1_S2_i').
GPGPU-Sim uArch: GPU detected kernel '_Z6KernelP4NodePiPbS2_S1_S2_i' finished on shader 1.
kernel_name = _Z6KernelP4NodePiPbS2_S1_S2_i 
kernel_launch_uid = 1 
gpu_sim_cycle = 5948
gpu_sim_insn = 917736
gpu_ipc =     154.2932
gpu_tot_sim_cycle = 5948
gpu_tot_sim_insn = 917736
gpu_tot_ipc =     154.2932
gpu_tot_issued_cta = 0
gpu_stall_dramfull = 278
gpu_stall_icnt2sh    = 297
gpu_total_sim_rate=305912

========= Core cache stats =========
L1I_cache:
	L1I_total_cache_accesses = 19521
	L1I_total_cache_misses = 962
	L1I_total_cache_miss_rate = 0.0493
	L1I_total_cache_pending_hits = 0
	L1I_total_cache_reservation_fails = 6596
L1D_cache:
	L1D_cache_core[0]: Access = 144, Miss = 36, Miss_rate = 0.250, Pending_hits = 108, Reservation_fails = 0
	L1D_cache_core[1]: Access = 196, Miss = 68, Miss_rate = 0.347, Pending_hits = 96, Reservation_fails = 0
	L1D_cache_core[2]: Access = 144, Miss = 36, Miss_rate = 0.250, Pending_hits = 108, Reservation_fails = 0
	L1D_cache_core[3]: Access = 144, Miss = 36, Miss_rate = 0.250, Pending_hits = 108, Reservation_fails = 0
	L1D_cache_core[4]: Access = 144, Miss = 36, Miss_rate = 0.250, Pending_hits = 108, Reservation_fails = 0
	L1D_cache_core[5]: Access = 128, Miss = 32, Miss_rate = 0.250, Pending_hits = 96, Reservation_fails = 0
	L1D_cache_core[6]: Access = 144, Miss = 36, Miss_rate = 0.250, Pending_hits = 108, Reservation_fails = 0
	L1D_cache_core[7]: Access = 136, Miss = 34, Miss_rate = 0.250, Pending_hits = 102, Reservation_fails = 0
	L1D_cache_core[8]: Access = 128, Miss = 32, Miss_rate = 0.250, Pending_hits = 96, Reservation_fails = 0
	L1D_cache_core[9]: Access = 136, Miss = 34, Miss_rate = 0.250, Pending_hits = 102, Reservation_fails = 0
	L1D_cache_core[10]: Access = 128, Miss = 32, Miss_rate = 0.250, Pending_hits = 96, Reservation_fails = 0
	L1D_cache_core[11]: Access = 136, Miss = 34, Miss_rate = 0.250, Pending_hits = 102, Reservation_fails = 0
	L1D_cache_core[12]: Access = 136, Miss = 34, Miss_rate = 0.250, Pending_hits = 102, Reservation_fails = 0
	L1D_cache_core[13]: Access = 136, Miss = 34, Miss_rate = 0.250, Pending_hits = 102, Reservation_fails = 0
	L1D_cache_core[14]: Access = 136, Miss = 34, Miss_rate = 0.250, Pending_hits = 102, Reservation_fails = 0
	L1D_total_cache_accesses = 2116
	L1D_total_cache_misses = 548
	L1D_total_cache_miss_rate = 0.2590
	L1D_total_cache_pending_hits = 1536
	L1D_total_cache_reservation_fails = 0
	L1D_cache_data_port_util = 0.001
	L1D_cache_fill_port_util = 0.013
L1C_cache:
	L1C_total_cache_accesses = 4115
	L1C_total_cache_misses = 480
	L1C_total_cache_miss_rate = 0.1166
	L1C_total_cache_pending_hits = 0
	L1C_total_cache_reservation_fails = 3412
L1T_cache:
	L1T_total_cache_accesses = 0
	L1T_total_cache_misses = 0
	L1T_total_cache_pending_hits = 0
	L1T_total_cache_reservation_fails = 0

Total_core_cache_stats:
	Total_core_cache_stats_breakdown[GLOBAL_ACC_R][HIT] = 31
	Total_core_cache_stats_breakdown[GLOBAL_ACC_R][HIT_RESERVED] = 1536
	Total_core_cache_stats_breakdown[GLOBAL_ACC_R][MISS] = 523
	Total_core_cache_stats_breakdown[CONST_ACC_R][HIT] = 3635
	Total_core_cache_stats_breakdown[CONST_ACC_R][MISS] = 480
	Total_core_cache_stats_breakdown[CONST_ACC_R][RESERVATION_FAIL] = 3412
	Total_core_cache_stats_breakdown[GLOBAL_ACC_W][HIT] = 1
	Total_core_cache_stats_breakdown[GLOBAL_ACC_W][MISS] = 25
	Total_core_cache_stats_breakdown[INST_ACC_R][HIT] = 18559
	Total_core_cache_stats_breakdown[INST_ACC_R][MISS] = 962
	Total_core_cache_stats_breakdown[INST_ACC_R][RESERVATION_FAIL] = 6596
Shader 0 warp_id issue ditsribution:
warp_id:
0, 1, 2, 3, 4, 5, 6, 7, 8, 9, 10, 11, 12, 13, 14, 15, 16, 17, 18, 19, 20, 21, 22, 23, 24, 25, 26, 27, 28, 29, 30, 31, 32, 33, 34, 35, 36, 37, 38, 39, 40, 41, 42, 43, 44, 45, 46, 47, 
distro:
45, 45, 45, 45, 45, 45, 45, 45, 45, 45, 45, 45, 45, 45, 45, 45, 45, 45, 45, 45, 45, 45, 45, 45, 45, 45, 45, 45, 45, 45, 45, 45, 45, 45, 45, 45, 45, 45, 45, 45, 45, 45, 45, 45, 45, 45, 45, 45, 
gpgpu_n_tot_thrd_icount = 990816
gpgpu_n_tot_w_icount = 30963
gpgpu_n_stall_shd_mem = 3412
gpgpu_n_mem_read_local = 0
gpgpu_n_mem_write_local = 0
gpgpu_n_mem_read_global = 523
gpgpu_n_mem_write_global = 26
gpgpu_n_mem_texture = 0
gpgpu_n_mem_const = 15
gpgpu_n_load_insn  = 65578
gpgpu_n_store_insn = 26
gpgpu_n_shmem_insn = 0
gpgpu_n_tex_insn = 0
gpgpu_n_const_mem_insn = 0
gpgpu_n_param_mem_insn = 131091
gpgpu_n_shmem_bkconflict = 0
gpgpu_n_cache_bkconflict = 0
gpgpu_n_intrawarp_mshr_merge = 0
gpgpu_n_cmem_portconflict = 3412
gpgpu_stall_shd_mem[c_mem][bk_conf] = 3412
gpgpu_stall_shd_mem[c_mem][mshr_rc] = 0
gpgpu_stall_shd_mem[c_mem][icnt_rc] = 0
gpgpu_stall_shd_mem[c_mem][data_port_stall] = 0
gpgpu_stall_shd_mem[t_mem][mshr_rc] = 0
gpgpu_stall_shd_mem[t_mem][icnt_rc] = 0
gpgpu_stall_shd_mem[t_mem][data_port_stall] = 0
gpgpu_stall_shd_mem[s_mem][bk_conf] = 0
gpgpu_stall_shd_mem[gl_mem][bk_conf] = 0
gpgpu_stall_shd_mem[gl_mem][coal_stall] = 0
gpgpu_stall_shd_mem[gl_mem][data_port_stall] = 0
gpgpu_stall_shd_mem[g_mem_ld][mshr_rc] = 0
gpgpu_stall_shd_mem[g_mem_ld][icnt_rc] = 0
gpgpu_stall_shd_mem[g_mem_ld][wb_icnt_rc] = 0
gpgpu_stall_shd_mem[g_mem_ld][wb_rsrv_fail] = 0
gpgpu_stall_shd_mem[g_mem_st][mshr_rc] = 0
gpgpu_stall_shd_mem[g_mem_st][icnt_rc] = 0
gpgpu_stall_shd_mem[g_mem_st][wb_icnt_rc] = 0
gpgpu_stall_shd_mem[g_mem_st][wb_rsrv_fail] = 0
gpgpu_stall_shd_mem[l_mem_ld][mshr_rc] = 0
gpgpu_stall_shd_mem[l_mem_ld][icnt_rc] = 0
gpgpu_stall_shd_mem[l_mem_ld][wb_icnt_rc] = 0
gpgpu_stall_shd_mem[l_mem_ld][wb_rsrv_fail] = 0
gpgpu_stall_shd_mem[l_mem_st][mshr_rc] = 0
gpgpu_stall_shd_mem[l_mem_st][icnt_rc] = 0
gpgpu_stall_shd_mem[l_mem_ld][wb_icnt_rc] = 0
gpgpu_stall_shd_mem[l_mem_ld][wb_rsrv_fail] = 0
gpu_reg_bank_conflict_stalls = 0
Warp Occupancy Distribution:
Stall:7636	W0_Idle:18300	W0_Scoreboard:23431	W1:243	W2:0	W3:0	W4:0	W5:0	W6:0	W7:0	W8:0	W9:0	W10:0	W11:0	W12:0	W13:0	W14:0	W15:0	W16:0	W17:0	W18:0	W19:0	W20:0	W21:0	W22:0	W23:0	W24:0	W25:0	W26:0	W27:0	W28:0	W29:0	W30:0	W31:0	W32:30720
traffic_breakdown_coretomem[CONST_ACC_R] = 120 {8:15,}
traffic_breakdown_coretomem[GLOBAL_ACC_R] = 4184 {8:523,}
traffic_breakdown_coretomem[GLOBAL_ACC_W] = 1040 {40:26,}
traffic_breakdown_coretomem[INST_ACC_R] = 256 {8:32,}
traffic_breakdown_memtocore[CONST_ACC_R] = 1080 {72:15,}
traffic_breakdown_memtocore[GLOBAL_ACC_R] = 71128 {136:523,}
traffic_breakdown_memtocore[GLOBAL_ACC_W] = 208 {8:26,}
traffic_breakdown_memtocore[INST_ACC_R] = 4352 {136:32,}
maxmrqlatency = 20 
maxdqlatency = 0 
maxmflatency = 305 
averagemflatency = 259 
max_icnt2mem_latency = 36 
max_icnt2sh_latency = 5947 
mrq_lat_table:495 	11 	28 	12 	2 	0 	0 	0 	0 	0 	0 	0 	0 	0 	0 	0 	0 	0 	0 	0 	0 	0 	0 	0 	0 	0 	0 	0 	0 	0 	0 	0 	
dq_lat_table:0 	0 	0 	0 	0 	0 	0 	0 	0 	0 	0 	0 	0 	0 	0 	0 	0 	0 	0 	0 	0 	0 	0 	0 	0 	0 	0 	0 	0 	0 	0 	0 	
mf_lat_table:0 	0 	0 	0 	0 	0 	0 	29 	535 	0 	0 	0 	0 	0 	0 	0 	0 	0 	0 	0 	0 	0 	0 	0 	0 	0 	0 	0 	0 	0 	0 	0 	
icnt2mem_lat_table:0 	0 	0 	585 	8 	3 	0 	0 	0 	0 	0 	0 	0 	0 	0 	0 	0 	0 	0 	0 	0 	0 	0 	0 	
icnt2sh_lat_table:0 	0 	0 	336 	193 	9 	0 	0 	0 	0 	2 	9 	15 	0 	0 	0 	0 	0 	0 	0 	0 	0 	0 	0 	
mf_lat_pw_table:0 	0 	0 	0 	0 	0 	0 	5 	5 	0 	0 	0 	0 	0 	0 	0 	0 	0 	0 	0 	0 	0 	0 	0 	0 	0 	0 	0 	0 	0 	0 	0 	
maximum concurrent accesses to same row:
dram[0]:         1         0         0         0         0         0         0         0         0         0         0         0         0         0         0         0 
dram[1]:         0         0         0         0         0         0         0         0         0         0         0         0         0         0         0         0 
dram[2]:         0         0         0         0         0         0         0         0         0         0         0         0         0         0         0         0 
dram[3]:         0         0         0         0         0         0         0         0         0         0         0         0         0         0         0         0 
dram[4]:         0         0         0         0         0         0         0         0         0         0        22        22         0         0         0         0 
dram[5]:         0         0         0         0         0         0         0         0         0         0         0         0         0         0         0         0 
maximum service time to same row:
dram[0]:      1593         0      5929         0         0         0         0         0         0         0       946       907      1785      1750         0         0 
dram[1]:      1185         0         0         0         0         0         0         0         0         0       959       912      1751      1757         0      4000 
dram[2]:         0         0         0      3128         0      1632         0         0         0      4332       953       921      1760      1560         0         0 
dram[3]:         0         0         0      5127         0      4729         0         0         0         0       956       924      1796      1751         0         0 
dram[4]:         0      3926         0         0         0      5524         0         0         0         0      1294      2595      1779      1772      3197         0 
dram[5]:         0         0         0         0         0         0         0         0         0         0       929       940      1768      1760      5597         0 
average row accesses per activate:
dram[0]:  1.000000      -nan  2.000000      -nan      -nan      -nan      -nan      -nan      -nan      -nan 20.000000 22.000000 22.000000 22.000000      -nan      -nan 
dram[1]:  2.000000      -nan      -nan      -nan      -nan      -nan      -nan      -nan      -nan      -nan 20.000000 22.000000 24.000000 22.000000      -nan  3.000000 
dram[2]:      -nan      -nan      -nan  2.000000      -nan  1.000000      -nan      -nan      -nan  2.000000 20.000000 22.000000 22.000000 22.000000      -nan      -nan 
dram[3]:      -nan      -nan      -nan  2.000000      -nan  2.000000      -nan      -nan      -nan      -nan 20.000000 22.000000 22.000000 20.000000      -nan      -nan 
dram[4]:      -nan  2.000000      -nan      -nan      -nan  2.000000      -nan      -nan      -nan      -nan  8.333333 12.000000 22.000000 20.000000  2.000000      -nan 
dram[5]:      -nan      -nan      -nan      -nan      -nan      -nan      -nan      -nan      -nan      -nan 22.000000 22.000000 22.000000 20.000000  1.000000      -nan 
average row locality = 548/43 = 12.744186
number of total memory accesses made:
dram[0]:         0         0         0         0         0         0         0         0         0         0         0         0         0         0         0         0 
dram[1]:         0         0         0         0         0         0         0         0         0         0         0         0         0         0         0         0 
dram[2]:         0         0         0         0         0         0         0         0         0         0         0         0         0         0         0         0 
dram[3]:         0         0         0         0         0         0         0         0         0         0         0         0         0         0         0         0 
dram[4]:         0         0         0         0         0         0         0         0         0         0         0         0         0         0         0         0 
dram[5]:         0         0         0         0         0         0         0         0         0         0         0         0         0         0         0         0 
total accesses: 0
min_bank_accesses = 0!
min_chip_accesses = 0!
number of total read accesses:
dram[0]:         4         0         1         0         0         0         0         0         0         0        20        22        22        22         0         0 
dram[1]:         2         0         0         0         0         0         0         0         0         0        20        22        24        22         0         3 
dram[2]:         0         0         0         1         0         1         0         0         0         1        20        22        22        21         0         0 
dram[3]:         0         0         0         1         0         1         0         0         0         0        20        22        22        20         0         0 
dram[4]:         0         1         0         0         0         1         0         0         0         0        24        23        22        20         2         0 
dram[5]:         0         0         0         0         0         0         0         0         0         0        22        22        22        20         1         0 
total reads: 538
min_bank_accesses = 0!
chip skew: 93/86 = 1.08
number of total write accesses:
dram[0]:         0         0         1         0         0         0         0         0         0         0         0         0         0         0         0         0 
dram[1]:         0         0         0         0         0         0         0         0         0         0         0         0         0         0         0         0 
dram[2]:         0         0         0         1         0         0         0         0         0         1         0         0         0         1         0         0 
dram[3]:         0         0         0         1         0         1         0         0         0         0         0         0         0         0         0         0 
dram[4]:         0         1         0         0         0         1         0         0         0         0         1         1         0         0         0         0 
dram[5]:         0         0         0         0         0         0         0         0         0         0         0         0         0         0         0         0 
total reads: 10
min_bank_accesses = 0!
min_chip_accesses = 0!
average mf latency per bank:
dram[0]:       1045    none         125    none      none      none      none      none      none      none         263       263       275       260    none      none  
dram[1]:          0    none      none      none      none      none      none      none      none      none         278       265       260       265    none         260
dram[2]:     none      none      none         126    none         266    none      none      none         125       265       262       264       247    none      none  
dram[3]:     none      none      none         126    none         125    none      none      none      none         269       274       272       262    none      none  
dram[4]:     none         125    none      none      none         126    none      none      none      none         298       248       269       263       261    none  
dram[5]:     none      none      none      none      none      none      none      none      none      none         263       260       262       263       266    none  
maximum mf latency per bank:
dram[0]:        280         0       251         0         0         0         0         0         0         0       274       276       285       272         0         0
dram[1]:          0         0         0         0         0         0         0         0         0         0       297       298       277       295         0       266
dram[2]:          0         0         0       252         0       266         0         0         0       251       277       283       286       278         0         0
dram[3]:          0         0         0       252         0       251         0         0         0         0       275       275       271       288         0         0
dram[4]:          0       251         0         0         0       252         0         0         0         0       299       268       305       286       265         0
dram[5]:          0         0         0         0         0         0         0         0         0         0       297       267       292       285       266         0

Number of Memory Banks Accessed per Memory Operation per Warp (from 0):
0	0	0	0	0	0	0	0	0	0	0	0	0	0	0	0	0	0	0	0	0	0	0	0	0	0	0	0	0	0	0	0	0	0	0	0	0	0	0	0	0	0	0	0	0	0	0	0	0	0	0	0	0	0	0	0	0	0	0	0	0	0	0	0	0	0	0	0	0	0	0	0	0	0	0	0	0	0	0	0	0	0	0	0	0	0	0	0	0	0	0	0	0	0	0	0	
Average # of Memory Banks Accessed per Memory Operation per Warp=-nan

position of mrq chosen
0	0	0	0	0	0	0	0	0	0	0	0	0	0	0	0	

average position of mrq chosen = -nan
Memory Partition 0: 
Cache L2_bank_000:
MSHR contents
MSHR: tag=0x80234400, atomic=0 1 entries : 0x7fc4a7e1f060 :  mf: uid= 35770, sid01:w00, part=0, addr=0x80234440, load , size=32, unknown  status = IN_PARTITION_DRAM (5943), 

Cache L2_bank_001:
MSHR contents

In Dram Latency Queue (total = 0): 
DRAM[0]: 16 bks, busW=8 BL=8 CL=12, tRRD=2 tCCD=6, tRCD=12 tRAS=28 tRP=12 tRC=40
n_cmd=7851 n_nop=7747 n_act=9 n_pre=3 n_req=92 n_rd=91 n_write=1 bw_util=0.02344
n_activity=849 dram_eff=0.2167
bk0: 4a 7760i bk1: 0a 7846i bk2: 1a 7829i bk3: 0a 7848i bk4: 0a 7849i bk5: 0a 7850i bk6: 0a 7852i bk7: 0a 7853i bk8: 0a 7853i bk9: 0a 7855i bk10: 20a 7809i bk11: 22a 7811i bk12: 22a 7807i bk13: 22a 7801i bk14: 0a 7849i bk15: 0a 7849i 
dram_util_bins: 0 0 0 0 0 0 0 0 0 0
dram_eff_bins: 0 0 0 0 0 0 0 0 0 0
mrqq: max=2 avg=0.00611387
Memory Partition 1: 
Cache L2_bank_002:
MSHR contents

Cache L2_bank_003:
MSHR contents

In Dram Latency Queue (total = 0): 
DRAM[1]: 16 bks, busW=8 BL=8 CL=12, tRRD=2 tCCD=6, tRCD=12 tRAS=28 tRP=12 tRC=40
n_cmd=7851 n_nop=7752 n_act=6 n_pre=0 n_req=93 n_rd=93 n_write=0 bw_util=0.02369
n_activity=742 dram_eff=0.2507
bk0: 2a 7835i bk1: 0a 7850i bk2: 0a 7850i bk3: 0a 7850i bk4: 0a 7850i bk5: 0a 7850i bk6: 0a 7851i bk7: 0a 7853i bk8: 0a 7853i bk9: 0a 7853i bk10: 20a 7808i bk11: 22a 7789i bk12: 24a 7806i bk13: 22a 7807i bk14: 0a 7849i bk15: 3a 7836i 
dram_util_bins: 0 0 0 0 0 0 0 0 0 0
dram_eff_bins: 0 0 0 0 0 0 0 0 0 0
mrqq: max=2 avg=0.00484015
Memory Partition 2: 
Cache L2_bank_004:
MSHR contents

Cache L2_bank_005:
MSHR contents

In Dram Latency Queue (total = 0): 
DRAM[2]: 16 bks, busW=8 BL=8 CL=12, tRRD=2 tCCD=6, tRCD=12 tRAS=28 tRP=12 tRC=40
n_cmd=7851 n_nop=7753 n_act=7 n_pre=0 n_req=91 n_rd=88 n_write=3 bw_util=0.02318
n_activity=784 dram_eff=0.2321
bk0: 0a 7850i bk1: 0a 7851i bk2: 0a 7852i bk3: 1a 7832i bk4: 0a 7850i bk5: 1a 7837i bk6: 0a 7850i bk7: 0a 7852i bk8: 0a 7855i bk9: 1a 7835i bk10: 20a 7811i bk11: 22a 7807i bk12: 22a 7802i bk13: 21a 7788i bk14: 0a 7848i bk15: 0a 7848i 
dram_util_bins: 0 0 0 0 0 0 0 0 0 0
dram_eff_bins: 0 0 0 0 0 0 0 0 0 0
mrqq: max=2 avg=0.00776971
Memory Partition 3: 
Cache L2_bank_006:
MSHR contents

Cache L2_bank_007:
MSHR contents

In Dram Latency Queue (total = 0): 
DRAM[3]: 16 bks, busW=8 BL=8 CL=12, tRRD=2 tCCD=6, tRCD=12 tRAS=28 tRP=12 tRC=40
n_cmd=7851 n_nop=7757 n_act=6 n_pre=0 n_req=88 n_rd=86 n_write=2 bw_util=0.02242
n_activity=710 dram_eff=0.2479
bk0: 0a 7849i bk1: 0a 7850i bk2: 0a 7851i bk3: 1a 7831i bk4: 0a 7852i bk5: 1a 7832i bk6: 0a 7851i bk7: 0a 7852i bk8: 0a 7854i bk9: 0a 7854i bk10: 20a 7810i bk11: 22a 7799i bk12: 22a 7807i bk13: 20a 7808i bk14: 0a 7847i bk15: 0a 7847i 
dram_util_bins: 0 0 0 0 0 0 0 0 0 0
dram_eff_bins: 0 0 0 0 0 0 0 0 0 0
mrqq: max=2 avg=0.00484015
Memory Partition 4: 
Cache L2_bank_008:
MSHR contents

Cache L2_bank_009:
MSHR contents

In Dram Latency Queue (total = 0): 
DRAM[4]: 16 bks, busW=8 BL=8 CL=12, tRRD=2 tCCD=6, tRCD=12 tRAS=28 tRP=12 tRC=40
n_cmd=7851 n_nop=7741 n_act=10 n_pre=3 n_req=97 n_rd=93 n_write=4 bw_util=0.02471
n_activity=854 dram_eff=0.2272
bk0: 0a 7848i bk1: 1a 7831i bk2: 0a 7849i bk3: 0a 7850i bk4: 0a 7850i bk5: 1a 7833i bk6: 0a 7853i bk7: 0a 7854i bk8: 0a 7855i bk9: 0a 7856i bk10: 24a 7757i bk11: 23a 7770i bk12: 22a 7797i bk13: 20a 7779i bk14: 2a 7832i bk15: 0a 7845i 
dram_util_bins: 0 0 0 0 0 0 0 0 0 0
dram_eff_bins: 0 0 0 0 0 0 0 0 0 0
mrqq: max=5 avg=0.0221628
Memory Partition 5: 
Cache L2_bank_010:
MSHR contents

Cache L2_bank_011:
MSHR contents

In Dram Latency Queue (total = 0): 
DRAM[5]: 16 bks, busW=8 BL=8 CL=12, tRRD=2 tCCD=6, tRCD=12 tRAS=28 tRP=12 tRC=40
n_cmd=7851 n_nop=7759 n_act=5 n_pre=0 n_req=87 n_rd=87 n_write=0 bw_util=0.02216
n_activity=624 dram_eff=0.2788
bk0: 0a 7848i bk1: 0a 7849i bk2: 0a 7850i bk3: 0a 7850i bk4: 0a 7850i bk5: 0a 7852i bk6: 0a 7852i bk7: 0a 7852i bk8: 0a 7852i bk9: 0a 7853i bk10: 22a 7811i bk11: 22a 7810i bk12: 22a 7806i bk13: 20a 7796i bk14: 1a 7835i bk15: 0a 7847i 
dram_util_bins: 0 0 0 0 0 0 0 0 0 0
dram_eff_bins: 0 0 0 0 0 0 0 0 0 0
mrqq: max=3 avg=0.00509489

========= L2 cache stats =========
L2_cache_bank[0]: Access = 77, Miss = 47, Miss_rate = 0.610, Pending_hits = 6, Reservation_fails = 229
L2_cache_bank[1]: Access = 44, Miss = 44, Miss_rate = 1.000, Pending_hits = 0, Reservation_fails = 0
L2_cache_bank[2]: Access = 61, Miss = 46, Miss_rate = 0.754, Pending_hits = 3, Reservation_fails = 102
L2_cache_bank[3]: Access = 47, Miss = 47, Miss_rate = 1.000, Pending_hits = 0, Reservation_fails = 0
L2_cache_bank[4]: Access = 42, Miss = 42, Miss_rate = 1.000, Pending_hits = 0, Reservation_fails = 0
L2_cache_bank[5]: Access = 46, Miss = 46, Miss_rate = 1.000, Pending_hits = 0, Reservation_fails = 0
L2_cache_bank[6]: Access = 45, Miss = 42, Miss_rate = 0.933, Pending_hits = 0, Reservation_fails = 0
L2_cache_bank[7]: Access = 46, Miss = 44, Miss_rate = 0.957, Pending_hits = 0, Reservation_fails = 0
L2_cache_bank[8]: Access = 56, Miss = 48, Miss_rate = 0.857, Pending_hits = 0, Reservation_fails = 0
L2_cache_bank[9]: Access = 45, Miss = 45, Miss_rate = 1.000, Pending_hits = 0, Reservation_fails = 0
L2_cache_bank[10]: Access = 45, Miss = 45, Miss_rate = 1.000, Pending_hits = 0, Reservation_fails = 0
L2_cache_bank[11]: Access = 42, Miss = 42, Miss_rate = 1.000, Pending_hits = 0, Reservation_fails = 0
L2_total_cache_accesses = 596
L2_total_cache_misses = 538
L2_total_cache_miss_rate = 0.9027
L2_total_cache_pending_hits = 9
L2_total_cache_reservation_fails = 331
L2_total_cache_breakdown:
	L2_cache_stats_breakdown[GLOBAL_ACC_R][MISS] = 523
	L2_cache_stats_breakdown[CONST_ACC_R][HIT] = 11
	L2_cache_stats_breakdown[CONST_ACC_R][HIT_RESERVED] = 3
	L2_cache_stats_breakdown[CONST_ACC_R][MISS] = 1
	L2_cache_stats_breakdown[CONST_ACC_R][RESERVATION_FAIL] = 116
	L2_cache_stats_breakdown[GLOBAL_ACC_W][HIT] = 16
	L2_cache_stats_breakdown[GLOBAL_ACC_W][MISS] = 10
	L2_cache_stats_breakdown[INST_ACC_R][HIT] = 22
	L2_cache_stats_breakdown[INST_ACC_R][HIT_RESERVED] = 6
	L2_cache_stats_breakdown[INST_ACC_R][MISS] = 4
	L2_cache_stats_breakdown[INST_ACC_R][RESERVATION_FAIL] = 215
L2_cache_data_port_util = 0.002
L2_cache_fill_port_util = 0.030

icnt_total_pkts_mem_to_simt=2846
icnt_total_pkts_simt_to_mem=622
LD_mem_lat_dist  0 0 0 0 0 0 0 0 0 0 0 0 0 0 0 0 0 0 0 0 0 0 0 0 0 0 0
ST_mem_lat_dist  0 0 0 0 0 0 0 0 0 0 0 0 0 0 0 0 0 0 0 0 0 0 0 0 0 0 0
----------------------------Interconnect-DETAILS--------------------------------
Class 0:
Packet latency average = 10.1661
	minimum = 6
	maximum = 43
Network latency average = 9.49497
	minimum = 6
	maximum = 34
Slowest packet = 14
Flit latency average = 8.18685
	minimum = 6
	maximum = 34
Slowest flit = 14
Fragmentation average = 0
	minimum = 0
	maximum = 0
Injected packet rate average = 0.00742235
	minimum = 0.00588433 (at node 5)
	maximum = 0.0129455 (at node 15)
Accepted packet rate average = 0.00742235
	minimum = 0.00588433 (at node 5)
	maximum = 0.0129455 (at node 15)
Injected flit rate average = 0.0215946
	minimum = 0.00588433 (at node 5)
	maximum = 0.0576664 (at node 15)
Accepted flit rate average= 0.0215946
	minimum = 0.0070612 (at node 19)
	maximum = 0.0443847 (at node 1)
Injected packet length average = 2.9094
Accepted packet length average = 2.9094
Total in-flight flits = 0 (0 measured)
====== Overall Traffic Statistics ======
====== Traffic class 0 ======
Packet latency average = 10.1661 (1 samples)
	minimum = 6 (1 samples)
	maximum = 43 (1 samples)
Network latency average = 9.49497 (1 samples)
	minimum = 6 (1 samples)
	maximum = 34 (1 samples)
Flit latency average = 8.18685 (1 samples)
	minimum = 6 (1 samples)
	maximum = 34 (1 samples)
Fragmentation average = 0 (1 samples)
	minimum = 0 (1 samples)
	maximum = 0 (1 samples)
Injected packet rate average = 0.00742235 (1 samples)
	minimum = 0.00588433 (1 samples)
	maximum = 0.0129455 (1 samples)
Accepted packet rate average = 0.00742235 (1 samples)
	minimum = 0.00588433 (1 samples)
	maximum = 0.0129455 (1 samples)
Injected flit rate average = 0.0215946 (1 samples)
	minimum = 0.00588433 (1 samples)
	maximum = 0.0576664 (1 samples)
Accepted flit rate average = 0.0215946 (1 samples)
	minimum = 0.0070612 (1 samples)
	maximum = 0.0443847 (1 samples)
Injected packet size average = 2.9094 (1 samples)
Accepted packet size average = 2.9094 (1 samples)
Hops average = 1 (1 samples)
----------------------------END-of-Interconnect-DETAILS-------------------------


gpgpu_simulation_time = 0 days, 0 hrs, 0 min, 3 sec (3 sec)
gpgpu_simulation_rate = 305912 (inst/sec)
gpgpu_simulation_rate = 1982 (cycle/sec)
GPGPU-Sim: synchronize waiting for inactive GPU simulation
GPGPU-Sim API: Stream Manager State
GPGPU-Sim: detected inactive GPU simulation thread

[...]
traffic_breakdown_coretomem[INST_ACC_R] = 480 {8:60,}
traffic_breakdown_memtocore[CONST_ACC_R] = 1080 {72:15,}
traffic_breakdown_memtocore[GLOBAL_ACC_R] = 84262200 {136:619575,}
traffic_breakdown_memtocore[GLOBAL_ACC_W] = 3303584 {8:412948,}
traffic_breakdown_memtocore[INST_ACC_R] = 8160 {136:60,}
maxmrqlatency = 155 
maxdqlatency = 0 
maxmflatency = 1235 
averagemflatency = 395 
max_icnt2mem_latency = 1005 
max_icnt2sh_latency = 764416 
mrq_lat_table:51633 	672 	1055 	4616 	4311 	634 	94 	7 	0 	0 	0 	0 	0 	0 	0 	0 	0 	0 	0 	0 	0 	0 	0 	0 	0 	0 	0 	0 	0 	0 	0 	0 	
dq_lat_table:0 	0 	0 	0 	0 	0 	0 	0 	0 	0 	0 	0 	0 	0 	0 	0 	0 	0 	0 	0 	0 	0 	0 	0 	0 	0 	0 	0 	0 	0 	0 	0 	
mf_lat_table:0 	0 	0 	0 	0 	0 	0 	134556 	711133 	186783 	66 	0 	0 	0 	0 	0 	0 	0 	0 	0 	0 	0 	0 	0 	0 	0 	0 	0 	0 	0 	0 	0 	
icnt2mem_lat_table:0 	0 	0 	85198 	30313 	81965 	322977 	242146 	265683 	4316 	0 	0 	0 	0 	0 	0 	0 	0 	0 	0 	0 	0 	0 	0 	
icnt2sh_lat_table:0 	0 	0 	36594 	293098 	271761 	17988 	149 	0 	0 	2 	9 	43 	905 	9237 	18299 	44430 	98845 	168524 	72654 	0 	0 	0 	0 	
mf_lat_pw_table:0 	0 	0 	0 	0 	0 	0 	104 	1428 	2 	0 	0 	0 	0 	0 	0 	0 	0 	0 	0 	0 	0 	0 	0 	0 	0 	0 	0 	0 	0 	0 	0 	
maximum concurrent accesses to same row:
dram[0]:        29        31        32        20        30        32        32        33        34        53        24        32        37        35        34        38 
dram[1]:        19        31        45        28        38        20        30        30        22        24        29        30        34        32        42        37 
dram[2]:        33        27        60        34        22        32        32        32        26        33        29        25        32        33        44        53 
dram[3]:        33        23        30        37        29        25        25        28        24        38        23        22        33        33        35        33 
dram[4]:        32        31        27        32        32        22        32        32        38        32        25        24        33        32        32        32 
dram[5]:        33        32        37        51        19        22        27        24        27        22        22        26        33        32        32        32 
maximum service time to same row:
dram[0]:     64216     60329     65975     44519     70814     54978     46806     56159     65950     74297     58789     60941    103909     85398     96488     95869 
dram[1]:     67388     66850     61609     45311    126891     64288     45931     50086     57007     75013     40581     74819    129808     89753     65926     94537 
dram[2]:     48472     62471     59607     51874     71617     42513     79585     43371     58053     64499     53314     90762     52997    108373    139146    140203 
dram[3]:     58248     64968     92699     96999     45262     43489     39776     52906     41934     37095     51570     57325     75057     83876     65591     65653 
dram[4]:     63879     59274     51997     97933     85164     55790     66690    103509     59787     47206     47547     71294    114519     62664     71719     95098 
dram[5]:     75950     59763    108721    104812     91931     56268     46784     59639     57396     53280     56164     40871     99791     57170    137009    138789 
average row accesses per activate:
dram[0]:  3.859550  3.483871  3.173160  3.385321  3.828221  3.952096  3.207469  3.673171  4.898649  4.351955  3.344086  3.260870  4.639175  4.025862  7.464286  5.861111 
dram[1]:  3.684729  3.913876  3.478873  3.453704  3.375000  2.844898  3.200000  3.087121  2.880435  3.358025  3.536458  3.437186  3.866142  4.269565  6.422535  5.935897 
dram[2]:  3.244444  3.276018  3.834225  3.713568  3.277174  3.536842  3.770732  3.751196  3.603865  3.745000  2.888430  2.876652  4.303571  4.650000  5.763158  5.228916 
dram[3]:  3.049809  3.151261  3.452915  4.074074  3.696629  3.862275  3.842857  3.544186  3.480000  3.106061  2.971193  2.753086  4.194915  4.369370  5.120879  5.730769 
dram[4]:  4.028902  4.137500  3.247706  3.350000  3.950920  3.969697  3.706186  4.017752  4.372881  4.346369  3.253968  3.520000  4.254386  4.523809  7.206897  8.260870 
dram[5]:  3.358140  3.301255  3.107570  2.956522  3.406091  3.264574  3.775510  3.609756  3.439462  3.035433  3.281407  3.035242  4.857143  3.910569  6.507936  5.643836 
average row locality = 63022/17235 = 3.656629
number of total memory accesses made:
dram[0]:         0         0         0         0         0         0         0         0         0         0         0         0         0         0         0         0 
dram[1]:         0         0         0         0         0         0         0         0         0         0         0         0         0         0         0         0 
dram[2]:         0         0         0         0         0         0         0         0         0         0         0         0         0         0         0         0 
dram[3]:         0         0         0         0         0         0         0         0         0         0         0         0         0         0         0         0 
dram[4]:         0         0         0         0         0         0         0         0         0         0         0         0         0         0         0         0 
dram[5]:         0         0         0         0         0         0         0         0         0         0         0         0         0         0         0         0 
total accesses: 0
min_bank_accesses = 0!
min_chip_accesses = 0!
number of total read accesses:
dram[0]:       492       534       529       527       485       501       600       587       550       573       515       505       425       434       416       420 
dram[1]:       521       554       509       523       530       538       613       627       594       592       535       542       458       459       453       462 
dram[2]:       519       507       512       514       466       512       583       593       578       569       555       543       457       440       436       430 
dram[3]:       551       527       537       531       496       493       604       587       586       601       575       534       457       453       464       446 
dram[4]:       497       485       512       486       502       503       563       529       581       581       512       495       456       439       418       380 
dram[5]:       515       544       562       565       508       538       565       571       576       578       540       554       445       452       408       411 
total reads: 49530
bank skew: 627/380 = 1.65
chip skew: 8510/7939 = 1.07
number of total write accesses:
dram[0]:       195       222       204       211       139       159       173       166       175       206       107        95        25        33         2         2 
dram[1]:       227       264       232       223       172       159       187       188       201       224       144       142        33        32         3         1 
dram[2]:       211       217       205       225       137       160       190       191       168       180       144       110        25        25         2         4 
dram[3]:       245       223       233       239       162       152       203       175       197       219       147       135        38        32         2         1 
dram[4]:       200       177       196       184       142       152       156       150       193       197       103       121        29        36         0         0 
dram[5]:       207       245       218       251       163       190       175       169       191       193       113       135        31        29         2         1 
total reads: 13492
min_bank_accesses = 0!
chip skew: 2432/2036 = 1.19
average mf latency per bank:
dram[0]:       2909      2649      3101      3003      3664      3423      3082      3117      3023      2797      6663      7093     14473     13762     21807     21047
dram[1]:       2686      2578      3139      3135      3422      3456      3107      3121      2947      2832      6146      6429     13366     13739     20465     20320
dram[2]:       2821      2838      3105      3035      3968      3565      3098      3066      3122      3150      5970      7010     13549     14789     20698     21374
dram[3]:       2627      2709      2901      2937      3532      3608      3017      3206      2922      2717      5844      6352     13114     13947     19673     20972
dram[4]:       3882      3126      4206      3359      4824      3670      4553      3505      3900      2851     42045      7183     18206     14445     29245     24240
dram[5]:       2795      2674      2902      2881      3388      3241      3064      3262      2842      3006      6666      6364     13529     14312     21940     22610
maximum mf latency per bank:
dram[0]:        860       958      1022       879       877       907       859       953       882       930       858       963       924       895       849       887
dram[1]:       1015       938       972       945       866       940       943      1014       947      1007       955       874       979       950       962       937
dram[2]:       1118      1025       904      1044       918       971      1080       976       953       905       968       984       982       959       902       950
dram[3]:       1103       940       879      1235       881       953       965       958       910       887       973       892       996       863       991       936
dram[4]:       1127       926      1064      1016      1145       979      1086       892      1220       994      1177       909      1186       981      1096       885
dram[5]:       1084      1098       950      1075       932       901       866       925       978       886       871       916       879       988       998       921

Number of Memory Banks Accessed per Memory Operation per Warp (from 0):
0	0	0	0	0	0	0	0	0	0	0	0	0	0	0	0	0	0	0	0	0	0	0	0	0	0	0	0	0	0	0	0	0	0	0	0	0	0	0	0	0	0	0	0	0	0	0	0	0	0	0	0	0	0	0	0	0	0	0	0	0	0	0	0	0	0	0	0	0	0	0	0	0	0	0	0	0	0	0	0	0	0	0	0	0	0	0	0	0	0	0	0	0	0	0	0	
Average # of Memory Banks Accessed per Memory Operation per Warp=-nan

position of mrq chosen
0	0	0	0	0	0	0	0	0	0	0	0	0	0	0	0	

average position of mrq chosen = -nan
Memory Partition 0: 
Cache L2_bank_000:
MSHR contents

Cache L2_bank_001:
MSHR contents

In Dram Latency Queue (total = 0): 
DRAM[0]: 16 bks, busW=8 BL=8 CL=12, tRRD=2 tCCD=6, tRCD=12 tRAS=28 tRP=12 tRC=40
n_cmd=1011688 n_nop=996181 n_act=2658 n_pre=2642 n_req=10207 n_rd=8093 n_write=2114 bw_util=0.02018
n_activity=151773 dram_eff=0.1345
bk0: 492a 1004870i bk1: 534a 1003132i bk2: 529a 1003102i bk3: 527a 1003031i bk4: 485a 1005476i bk5: 501a 1005055i bk6: 600a 1002930i bk7: 587a 1003491i bk8: 550a 1004967i bk9: 573a 1003987i bk10: 515a 1004931i bk11: 505a 1004919i bk12: 425a 1007697i bk13: 434a 1007149i bk14: 416a 1009377i bk15: 420a 1009151i 
dram_util_bins: 0 0 0 0 0 0 0 0 0 0
dram_eff_bins: 0 0 0 0 0 0 0 0 0 0
mrqq: max=16 avg=0.0443249
Memory Partition 1: 
Cache L2_bank_002:
MSHR contents

Cache L2_bank_003:
MSHR contents

In Dram Latency Queue (total = 0): 
DRAM[1]: 16 bks, busW=8 BL=8 CL=12, tRRD=2 tCCD=6, tRCD=12 tRAS=28 tRP=12 tRC=40
n_cmd=1011688 n_nop=994544 n_act=3109 n_pre=3093 n_req=10942 n_rd=8510 n_write=2432 bw_util=0.02163
n_activity=170040 dram_eff=0.1287
bk0: 521a 1004000i bk1: 554a 1003561i bk2: 509a 1003369i bk3: 523a 1003527i bk4: 530a 1004088i bk5: 538a 1003322i bk6: 613a 1002629i bk7: 627a 1002077i bk8: 594a 1001496i bk9: 592a 1001894i bk10: 535a 1004288i bk11: 542a 1004000i bk12: 458a 1006830i bk13: 459a 1007207i bk14: 453a 1008945i bk15: 462a 1009022i 
dram_util_bins: 0 0 0 0 0 0 0 0 0 0
dram_eff_bins: 0 0 0 0 0 0 0 0 0 0
mrqq: max=13 avg=0.0396565
Memory Partition 2: 
Cache L2_bank_004:
MSHR contents

Cache L2_bank_005:
MSHR contents

In Dram Latency Queue (total = 0): 
DRAM[2]: 16 bks, busW=8 BL=8 CL=12, tRRD=2 tCCD=6, tRCD=12 tRAS=28 tRP=12 tRC=40
n_cmd=1011688 n_nop=995562 n_act=2867 n_pre=2851 n_req=10408 n_rd=8214 n_write=2194 bw_util=0.02058
n_activity=158031 dram_eff=0.1317
bk0: 519a 1003647i bk1: 507a 1003422i bk2: 512a 1004017i bk3: 514a 1003431i bk4: 466a 1005175i bk5: 512a 1004447i bk6: 583a 1003616i bk7: 593a 1003116i bk8: 578a 1003576i bk9: 569a 1003613i bk10: 555a 1002936i bk11: 543a 1003553i bk12: 457a 1007183i bk13: 440a 1007804i bk14: 436a 1008943i bk15: 430a 1009038i 
dram_util_bins: 0 0 0 0 0 0 0 0 0 0
dram_eff_bins: 0 0 0 0 0 0 0 0 0 0
mrqq: max=16 avg=0.0394598
Memory Partition 3: 
Cache L2_bank_006:
MSHR contents

Cache L2_bank_007:
MSHR contents

In Dram Latency Queue (total = 0): 
DRAM[3]: 16 bks, busW=8 BL=8 CL=12, tRRD=2 tCCD=6, tRCD=12 tRAS=28 tRP=12 tRC=40
n_cmd=1011688 n_nop=994751 n_act=3054 n_pre=3038 n_req=10845 n_rd=8442 n_write=2403 bw_util=0.02144
n_activity=169818 dram_eff=0.1277
bk0: 551a 1002189i bk1: 527a 1002895i bk2: 537a 1002925i bk3: 531a 1003720i bk4: 496a 1005108i bk5: 493a 1004969i bk6: 604a 1003402i bk7: 587a 1003722i bk8: 586a 1003030i bk9: 601a 1001886i bk10: 575a 1002940i bk11: 534a 1003203i bk12: 457a 1007044i bk13: 453a 1007554i bk14: 464a 1008548i bk15: 446a 1009111i 
dram_util_bins: 0 0 0 0 0 0 0 0 0 0
dram_eff_bins: 0 0 0 0 0 0 0 0 0 0
mrqq: max=9 avg=0.0371854
Memory Partition 4: 
Cache L2_bank_008:
MSHR contents

Cache L2_bank_009:
MSHR contents

In Dram Latency Queue (total = 0): 
DRAM[4]: 16 bks, busW=8 BL=8 CL=12, tRRD=2 tCCD=6, tRCD=12 tRAS=28 tRP=12 tRC=40
n_cmd=1011688 n_nop=996759 n_act=2485 n_pre=2469 n_req=9975 n_rd=7939 n_write=2036 bw_util=0.01972
n_activity=149711 dram_eff=0.1333
bk0: 497a 1004993i bk1: 485a 1005313i bk2: 512a 1003882i bk3: 486a 1004027i bk4: 502a 1005389i bk5: 503a 1004882i bk6: 563a 1004131i bk7: 529a 1004638i bk8: 581a 1004028i bk9: 581a 1003762i bk10: 512a 1004758i bk11: 495a 1005079i bk12: 456a 1007315i bk13: 439a 1007301i bk14: 418a 1009279i bk15: 380a 1009935i 
dram_util_bins: 0 0 0 0 0 0 0 0 0 0
dram_eff_bins: 0 0 0 0 0 0 0 0 0 0
mrqq: max=16 avg=0.0377004
Memory Partition 5: 
Cache L2_bank_010:
MSHR contents

Cache L2_bank_011:
MSHR contents

In Dram Latency Queue (total = 0): 
DRAM[5]: 16 bks, busW=8 BL=8 CL=12, tRRD=2 tCCD=6, tRCD=12 tRAS=28 tRP=12 tRC=40
n_cmd=1011688 n_nop=994935 n_act=3062 n_pre=3046 n_req=10645 n_rd=8332 n_write=2313 bw_util=0.02104
n_activity=165801 dram_eff=0.1284
bk0: 515a 1004121i bk1: 544a 1002836i bk2: 562a 1002332i bk3: 565a 1001171i bk4: 508a 1004289i bk5: 538a 1003205i bk6: 565a 1003839i bk7: 571a 1003594i bk8: 576a 1003284i bk9: 578a 1002313i bk10: 540a 1004591i bk11: 554a 1003658i bk12: 445a 1007691i bk13: 452a 1007237i bk14: 408a 1009270i bk15: 411a 1009245i 
dram_util_bins: 0 0 0 0 0 0 0 0 0 0
dram_eff_bins: 0 0 0 0 0 0 0 0 0 0
mrqq: max=15 avg=0.0372131

========= L2 cache stats =========
L2_cache_bank[0]: Access = 82042, Miss = 4012, Miss_rate = 0.049, Pending_hits = 14, Reservation_fails = 543
L2_cache_bank[1]: Access = 82643, Miss = 4081, Miss_rate = 0.049, Pending_hits = 12, Reservation_fails = 247
L2_cache_bank[2]: Access = 82118, Miss = 4213, Miss_rate = 0.051, Pending_hits = 19, Reservation_fails = 104
L2_cache_bank[3]: Access = 83332, Miss = 4297, Miss_rate = 0.052, Pending_hits = 13, Reservation_fails = 3
L2_cache_bank[4]: Access = 81789, Miss = 4106, Miss_rate = 0.050, Pending_hits = 6, Reservation_fails = 1
L2_cache_bank[5]: Access = 82989, Miss = 4108, Miss_rate = 0.050, Pending_hits = 17, Reservation_fails = 34
L2_cache_bank[6]: Access = 82428, Miss = 4270, Miss_rate = 0.052, Pending_hits = 16, Reservation_fails = 1
L2_cache_bank[7]: Access = 83067, Miss = 4172, Miss_rate = 0.050, Pending_hits = 12, Reservation_fails = 2
L2_cache_bank[8]: Access = 122509, Miss = 4041, Miss_rate = 0.033, Pending_hits = 8, Reservation_fails = 102
L2_cache_bank[9]: Access = 83260, Miss = 3898, Miss_rate = 0.047, Pending_hits = 17, Reservation_fails = 196
L2_cache_bank[10]: Access = 82771, Miss = 4119, Miss_rate = 0.050, Pending_hits = 9, Reservation_fails = 0
L2_cache_bank[11]: Access = 83650, Miss = 4213, Miss_rate = 0.050, Pending_hits = 10, Reservation_fails = 1
L2_total_cache_accesses = 1032598
L2_total_cache_misses = 49530
L2_total_cache_miss_rate = 0.0480
L2_total_cache_pending_hits = 153
L2_total_cache_reservation_fails = 1234
L2_total_cache_breakdown:
	L2_cache_stats_breakdown[GLOBAL_ACC_R][HIT] = 577045
	L2_cache_stats_breakdown[GLOBAL_ACC_R][HIT_RESERVED] = 22
	L2_cache_stats_breakdown[GLOBAL_ACC_R][MISS] = 42508
	L2_cache_stats_breakdown[GLOBAL_ACC_R][RESERVATION_FAIL] = 888
	L2_cache_stats_breakdown[CONST_ACC_R][HIT] = 11
	L2_cache_stats_breakdown[CONST_ACC_R][HIT_RESERVED] = 3
	L2_cache_stats_breakdown[CONST_ACC_R][MISS] = 1
	L2_cache_stats_breakdown[CONST_ACC_R][RESERVATION_FAIL] = 116
	L2_cache_stats_breakdown[GLOBAL_ACC_W][HIT] = 405809
	L2_cache_stats_breakdown[GLOBAL_ACC_W][HIT_RESERVED] = 122
	L2_cache_stats_breakdown[GLOBAL_ACC_W][MISS] = 7017
	L2_cache_stats_breakdown[GLOBAL_ACC_W][RESERVATION_FAIL] = 15
	L2_cache_stats_breakdown[INST_ACC_R][HIT] = 50
	L2_cache_stats_breakdown[INST_ACC_R][HIT_RESERVED] = 6
	L2_cache_stats_breakdown[INST_ACC_R][MISS] = 4
	L2_cache_stats_breakdown[INST_ACC_R][RESERVATION_FAIL] = 215
L2_cache_data_port_util = 0.298
L2_cache_fill_port_util = 0.022

icnt_total_pkts_mem_to_simt=3511168
icnt_total_pkts_simt_to_mem=1446172
LD_mem_lat_dist  0 0 0 0 0 0 0 0 0 0 0 0 0 0 0 0 0 0 0 0 0 0 0 0 0 0 0
ST_mem_lat_dist  0 0 0 0 0 0 0 0 0 0 0 0 0 0 0 0 0 0 0 0 0 0 0 0 0 0 0
----------------------------Interconnect-DETAILS--------------------------------
Class 0:
Packet latency average = 9.68579
	minimum = 6
	maximum = 38
Network latency average = 9.20651
	minimum = 6
	maximum = 34
Slowest packet = 2062828
Flit latency average = 7.95175
	minimum = 6
	maximum = 30
Slowest flit = 4953916
Fragmentation average = 0
	minimum = 0
	maximum = 0
Injected packet rate average = 0.0308585
	minimum = 0.0191181 (at node 10)
	maximum = 0.0419365 (at node 8)
Accepted packet rate average = 0.0308585
	minimum = 0.0191181 (at node 10)
	maximum = 0.0419365 (at node 8)
Injected flit rate average = 0.0859287
	minimum = 0.0203515 (at node 10)
	maximum = 0.163737 (at node 26)
Accepted flit rate average= 0.0859287
	minimum = 0.0360777 (at node 19)
	maximum = 0.185014 (at node 8)
Injected packet length average = 2.7846
Accepted packet length average = 2.7846
Total in-flight flits = 0 (0 measured)
====== Overall Traffic Statistics ======
====== Traffic class 0 ======
Packet latency average = 35.1288 (8 samples)
	minimum = 6 (8 samples)
	maximum = 336.25 (8 samples)
Network latency average = 22.6538 (8 samples)
	minimum = 6 (8 samples)
	maximum = 240.25 (8 samples)
Flit latency average = 17.0765 (8 samples)
	minimum = 6 (8 samples)
	maximum = 238.125 (8 samples)
Fragmentation average = 0.0347136 (8 samples)
	minimum = 0 (8 samples)
	maximum = 173.625 (8 samples)
Injected packet rate average = 0.0548716 (8 samples)
	minimum = 0.0418916 (8 samples)
	maximum = 0.100545 (8 samples)
Accepted packet rate average = 0.0548716 (8 samples)
	minimum = 0.0418916 (8 samples)
	maximum = 0.100545 (8 samples)
Injected flit rate average = 0.135247 (8 samples)
	minimum = 0.0558216 (8 samples)
	maximum = 0.26159 (8 samples)
Accepted flit rate average = 0.135247 (8 samples)
	minimum = 0.0737775 (8 samples)
	maximum = 0.234013 (8 samples)
Injected packet size average = 2.46479 (8 samples)
Accepted packet size average = 2.46479 (8 samples)
Hops average = 1 (8 samples)
----------------------------END-of-Interconnect-DETAILS-------------------------


gpgpu_simulation_time = 0 days, 0 hrs, 6 min, 23 sec (383 sec)
gpgpu_simulation_rate = 41496 (inst/sec)
gpgpu_simulation_rate = 2001 (cycle/sec)
GPGPU-Sim: synchronize waiting for inactive GPU simulation
GPGPU-Sim API: Stream Manager State
GPGPU-Sim: detected inactive GPU simulation thread
Kernel Executed 8 times
Processing time: 382468.156250 (ms)
Result stored in result.txt
