

        *** GPGPU-Sim Simulator Version 3.2.2  [build 0] ***


GPGPU-Sim PTX: simulation mode 0 (can change with PTX_SIM_MODE_FUNC environment variable:
               1=functional simulation only, 0=detailed performance simulator)
GPGPU-Sim: Configuration options:

-network_mode                           1 # Interconnection network mode
-inter_config_file   config_fermi_islip.icnt # Interconnection network config file
-gpgpu_ptx_use_cuobjdump                    1 # Use cuobjdump to extract ptx and sass from binaries
-gpgpu_experimental_lib_support                    0 # Try to extract code from cuda libraries [Broken because of unknown cudaGetExportTable]
-gpgpu_ptx_convert_to_ptxplus                    0 # Convert SASS (native ISA) to ptxplus and run ptxplus
-gpgpu_ptx_force_max_capability                   20 # Force maximum compute capability
-gpgpu_ptx_inst_debug_to_file                    0 # Dump executed instructions' debug information to file
-gpgpu_ptx_inst_debug_file       inst_debug.txt # Executed instructions' debug output file
-gpgpu_ptx_inst_debug_thread_uid                    1 # Thread UID for executed instructions' debug output
-gpgpu_simd_model                       1 # 1 = post-dominator
-gpgpu_shader_core_pipeline              1536:32 # shader core pipeline config, i.e., {<nthread>:<warpsize>}
-gpgpu_tex_cache:l1  4:128:24,L:R:m:N:L,F:128:4,128:2 # per-shader L1 texture cache  (READ-ONLY) config  {<nsets>:<bsize>:<assoc>,<rep>:<wr>:<alloc>:<wr_alloc>,<mshr>:<N>:<merge>,<mq>:<rf>}
-gpgpu_const_cache:l1 64:64:2,L:R:f:N:L,A:2:32,4 # per-shader L1 constant memory cache  (READ-ONLY) config  {<nsets>:<bsize>:<assoc>,<rep>:<wr>:<alloc>:<wr_alloc>,<mshr>:<N>:<merge>,<mq>} 
-gpgpu_cache:il1     4:128:4,L:R:f:N:L,A:2:32,4 # shader L1 instruction cache config  {<nsets>:<bsize>:<assoc>,<rep>:<wr>:<alloc>:<wr_alloc>,<mshr>:<N>:<merge>,<mq>} 
-gpgpu_cache:dl1     64:128:1,L:L:m:N:H,A:32:8,8 # per-shader L1 data cache config  {<nsets>:<bsize>:<assoc>,<rep>:<wr>:<alloc>:<wr_alloc>,<mshr>:<N>:<merge>,<mq> | none}
-gpgpu_cache:dl1PrefL1                 none # per-shader L1 data cache config  {<nsets>:<bsize>:<assoc>,<rep>:<wr>:<alloc>:<wr_alloc>,<mshr>:<N>:<merge>,<mq> | none}
-gpgpu_cache:dl1PreShared                 none # per-shader L1 data cache config  {<nsets>:<bsize>:<assoc>,<rep>:<wr>:<alloc>:<wr_alloc>,<mshr>:<N>:<merge>,<mq> | none}
-gmem_skip_L1D                          0 # global memory access skip L1D cache (implements -Xptxas -dlcm=cg, default=no skip)
-gpgpu_perfect_mem                      0 # enable perfect memory mode (no cache miss)
-n_regfile_gating_group                    4 # group of lanes that should be read/written together)
-gpgpu_clock_gated_reg_file                    0 # enable clock gated reg file for power calculations
-gpgpu_clock_gated_lanes                    0 # enable clock gated lanes for power calculations
-gpgpu_shader_registers                32768 # Number of registers per shader core. Limits number of concurrent CTAs. (default 8192)
-gpgpu_shader_cta                       8 # Maximum number of concurrent CTAs in shader (default 8)
-gpgpu_num_cta_barriers                   16 # Maximum number of named barriers per CTA (default 16)
-gpgpu_n_clusters                      15 # number of processing clusters
-gpgpu_n_cores_per_cluster                    1 # number of simd cores per cluster
-gpgpu_n_cluster_ejection_buffer_size                    8 # number of packets in ejection buffer
-gpgpu_n_ldst_response_buffer_size                    2 # number of response packets in ld/st unit ejection buffer
-gpgpu_shmem_size                   16384 # Size of shared memory per shader core (default 16kB)
-gpgpu_shmem_size                   49152 # Size of shared memory per shader core (default 16kB)
-gpgpu_shmem_size_PrefL1                16384 # Size of shared memory per shader core (default 16kB)
-gpgpu_shmem_size_PrefShared                16384 # Size of shared memory per shader core (default 16kB)
-gpgpu_shmem_num_banks                   32 # Number of banks in the shared memory in each shader core (default 16)
-gpgpu_shmem_limited_broadcast                    0 # Limit shared memory to do one broadcast per cycle (default on)
-gpgpu_shmem_warp_parts                    1 # Number of portions a warp is divided into for shared memory bank conflict check 
-gpgpu_warpdistro_shader                   -1 # Specify which shader core to collect the warp size distribution from
-gpgpu_warp_issue_shader                    0 # Specify which shader core to collect the warp issue distribution from
-gpgpu_local_mem_map                    1 # Mapping from local memory space address to simulated GPU physical address space (default = enabled)
-gpgpu_num_reg_banks                   16 # Number of register banks (default = 8)
-gpgpu_reg_bank_use_warp_id                    0 # Use warp ID in mapping registers to banks (default = off)
-gpgpu_operand_collector_num_units_sp                    6 # number of collector units (default = 4)
-gpgpu_operand_collector_num_units_sfu                    8 # number of collector units (default = 4)
-gpgpu_operand_collector_num_units_mem                    2 # number of collector units (default = 2)
-gpgpu_operand_collector_num_units_gen                    0 # number of collector units (default = 0)
-gpgpu_operand_collector_num_in_ports_sp                    2 # number of collector unit in ports (default = 1)
-gpgpu_operand_collector_num_in_ports_sfu                    1 # number of collector unit in ports (default = 1)
-gpgpu_operand_collector_num_in_ports_mem                    1 # number of collector unit in ports (default = 1)
-gpgpu_operand_collector_num_in_ports_gen                    0 # number of collector unit in ports (default = 0)
-gpgpu_operand_collector_num_out_ports_sp                    2 # number of collector unit in ports (default = 1)
-gpgpu_operand_collector_num_out_ports_sfu                    1 # number of collector unit in ports (default = 1)
-gpgpu_operand_collector_num_out_ports_mem                    1 # number of collector unit in ports (default = 1)
-gpgpu_operand_collector_num_out_ports_gen                    0 # number of collector unit in ports (default = 0)
-gpgpu_coalesce_arch                   13 # Coalescing arch (default = 13, anything else is off for now)
-gpgpu_num_sched_per_core                    2 # Number of warp schedulers per core
-gpgpu_max_insn_issue_per_warp                    1 # Max number of instructions that can be issued per warp in one cycle by scheduler
-gpgpu_simt_core_sim_order                    1 # Select the simulation order of cores in a cluster (0=Fix, 1=Round-Robin)
-gpgpu_pipeline_widths        2,1,1,2,1,1,2 # Pipeline widths ID_OC_SP,ID_OC_SFU,ID_OC_MEM,OC_EX_SP,OC_EX_SFU,OC_EX_MEM,EX_WB
-gpgpu_num_sp_units                     2 # Number of SP units (default=1)
-gpgpu_num_sfu_units                    1 # Number of SF units (default=1)
-gpgpu_num_mem_units                    1 # Number if ldst units (default=1) WARNING: not hooked up to anything
-gpgpu_scheduler                      gto # Scheduler configuration: < lrr | gto | two_level_active > If two_level_active:<num_active_warps>:<inner_prioritization>:<outer_prioritization>For complete list of prioritization values see shader.h enum scheduler_prioritization_typeDefault: gto
-gpgpu_dram_scheduler                    1 # 0 = fifo, 1 = FR-FCFS (defaul)
-gpgpu_dram_partition_queues              8:8:8:8 # i2$:$2d:d2$:$2i
-l2_ideal                               0 # Use a ideal L2 cache that always hit
-gpgpu_cache:dl2     64:128:8,L:B:m:W:L,A:32:4,4:0,32 # unified banked L2 data cache config  {<nsets>:<bsize>:<assoc>,<rep>:<wr>:<alloc>:<wr_alloc>,<mshr>:<N>:<merge>,<mq>}
-gpgpu_cache:dl2_texture_only                    0 # L2 cache used for texture only
-gpgpu_n_mem                            6 # number of memory modules (e.g. memory controllers) in gpu
-gpgpu_n_sub_partition_per_mchannel                    2 # number of memory subpartition in each memory module
-gpgpu_n_mem_per_ctrlr                    2 # number of memory chips per memory controller
-gpgpu_memlatency_stat                   14 # track and display latency statistics 0x2 enables MC, 0x4 enables queue logs
-gpgpu_frfcfs_dram_sched_queue_size                   16 # 0 = unlimited (default); # entries per chip
-gpgpu_dram_return_queue_size                  116 # 0 = unlimited (default); # entries per chip
-gpgpu_dram_buswidth                    4 # default = 4 bytes (8 bytes per cycle at DDR)
-gpgpu_dram_burst_length                    8 # Burst length of each DRAM request (default = 4 data bus cycle)
-dram_data_command_freq_ratio                    4 # Frequency ratio between DRAM data bus and command bus (default = 2 times, i.e. DDR)
-gpgpu_dram_timing_opt nbk=16:CCD=2:RRD=6:RCD=12:RAS=28:RP=12:RC=40: CL=12:WL=4:CDLR=5:WR=12:nbkgrp=4:CCDL=3:RTPL=2 # DRAM timing parameters = {nbk:tCCD:tRRD:tRCD:tRAS:tRP:tRC:CL:WL:tCDLR:tWR:nbkgrp:tCCDL:tRTPL}
-rop_latency                          120 # ROP queue latency (default 85)
-dram_latency                         100 # DRAM latency (default 30)
-gpgpu_mem_addr_mapping dramid@8;00000000.00000000.00000000.00000000.0000RRRR.RRRRRRRR.BBBCCCCB.CCSSSSSS # mapping memory address to dram model {dramid@<start bit>;<memory address map>}
-gpgpu_mem_addr_test                    0 # run sweep test to check address mapping for aliased address
-gpgpu_mem_address_mask                    1 # 0 = old addressing mask, 1 = new addressing mask, 2 = new add. mask + flipped bank sel and chip sel bits
-gpuwattch_xml_file  gpuwattch_gtx480.xml # GPUWattch XML file
-power_simulation_enabled                    1 # Turn on power simulator (1=On, 0=Off)
-power_per_cycle_dump                    0 # Dump detailed power output each cycle
-power_trace_enabled                    0 # produce a file for the power trace (1=On, 0=Off)
-power_trace_zlevel                     6 # Compression level of the power trace output log (0=no comp, 9=highest)
-steady_power_levels_enabled                    0 # produce a file for the steady power levels (1=On, 0=Off)
-steady_state_definition                  8:4 # allowed deviation:number of samples
-gpgpu_max_cycle                        0 # terminates gpu simulation early (0 = no limit)
-gpgpu_max_insn                         0 # terminates gpu simulation early (0 = no limit)
-gpgpu_max_cta                          0 # terminates gpu simulation early (0 = no limit)
-gpgpu_runtime_stat                   500 # display runtime statistics such as dram utilization {<freq>:<flag>}
-liveness_message_freq                    1 # Minimum number of seconds between simulation liveness messages (0 = always print)
-gpgpu_flush_l1_cache                    0 # Flush L1 cache at the end of each kernel call
-gpgpu_flush_l2_cache                    0 # Flush L2 cache at the end of each kernel call
-gpgpu_deadlock_detect                    1 # Stop the simulation at deadlock (1=on (default), 0=off)
-gpgpu_ptx_instruction_classification                    0 # if enabled will classify ptx instruction types per kernel (Max 255 kernels now)
-gpgpu_ptx_sim_mode                     0 # Select between Performance (default) or Functional simulation (1)
-gpgpu_clock_domains 700.0:700.0:700.0:924.0 # Clock Domain Frequencies in MhZ {<Core Clock>:<ICNT Clock>:<L2 Clock>:<DRAM Clock>}
-gpgpu_max_concurrent_kernel                    8 # maximum kernels that can run concurrently on GPU
-gpgpu_cflog_interval                    0 # Interval between each snapshot in control flow logger
-visualizer_enabled                     0 # Turn on visualizer output (1=On, 0=Off)
-visualizer_outputfile                 NULL # Specifies the output log file for visualizer
-visualizer_zlevel                      6 # Compression level of the visualizer output log (0=no comp, 9=highest)
-trace_enabled                          0 # Turn on traces
-trace_components                    none # comma seperated list of traces to enable. Complete list found in trace_streams.tup. Default none
-trace_sampling_core                    0 # The core which is printed using CORE_DPRINTF. Default 0
-trace_sampling_memory_partition                   -1 # The memory partition which is printed using MEMPART_DPRINTF. Default -1 (i.e. all)
-enable_ptx_file_line_stats                    1 # Turn on PTX source line statistic profiling. (1 = On)
-ptx_line_stats_filename gpgpu_inst_stats.txt # Output file for PTX source line statistics.
-save_embedded_ptx                      0 # saves ptx files embedded in binary as <n>.ptx
-keep                                   0 # keep intermediate files created by GPGPU-Sim when interfacing with external programs
-gpgpu_ptx_save_converted_ptxplus                    0 # Saved converted ptxplus to a file
-ptx_opcode_latency_int         4,13,4,5,145 # Opcode latencies for integers <ADD,MAX,MUL,MAD,DIV>Default 1,1,19,25,145
-ptx_opcode_latency_fp          4,13,4,5,39 # Opcode latencies for single precision floating points <ADD,MAX,MUL,MAD,DIV>Default 1,1,1,1,30
-ptx_opcode_latency_dp         8,19,8,8,330 # Opcode latencies for double precision floating points <ADD,MAX,MUL,MAD,DIV>Default 8,8,8,8,335
-ptx_opcode_initiation_int            1,2,2,1,8 # Opcode initiation intervals for integers <ADD,MAX,MUL,MAD,DIV>Default 1,1,4,4,32
-ptx_opcode_initiation_fp            1,2,1,1,4 # Opcode initiation intervals for single precision floating points <ADD,MAX,MUL,MAD,DIV>Default 1,1,1,1,5
-ptx_opcode_initiation_dp         8,16,8,8,130 # Opcode initiation intervals for double precision floating points <ADD,MAX,MUL,MAD,DIV>Default 8,8,8,8,130
DRAM Timing Options:
nbk                                    16 # number of banks
CCD                                     2 # column to column delay
RRD                                     6 # minimal delay between activation of rows in different banks
RCD                                    12 # row to column delay
RAS                                    28 # time needed to activate row
RP                                     12 # time needed to precharge (deactivate) row
RC                                     40 # row cycle time
CDLR                                    5 # switching from write to read (changes tWTR)
WR                                     12 # last data-in to row precharge
CL                                     12 # CAS latency
WL                                      4 # Write latency
nbkgrp                                  4 # number of bank groups
CCDL                                    3 # column to column delay between accesses to different bank groups
RTPL                                    2 # read to precharge delay between accesses to different bank groups
Total number of memory sub partition = 12
addr_dec_mask[CHIP]  = 0000000000000000 	high:64 low:0
addr_dec_mask[BK]    = 000000000000e100 	high:16 low:8
addr_dec_mask[ROW]   = 000000000fff0000 	high:28 low:16
addr_dec_mask[COL]   = 0000000000001eff 	high:13 low:0
addr_dec_mask[BURST] = 000000000000003f 	high:6 low:0
sub_partition_id_mask = 0000000000000100
GPGPU-Sim uArch: clock freqs: 700000000.000000:700000000.000000:700000000.000000:924000000.000000
GPGPU-Sim uArch: clock periods: 0.00000000142857142857:0.00000000142857142857:0.00000000142857142857:0.00000000108225108225
*** Initializing Memory Statistics ***
GPGPU-Sim uArch: interconnect node map (shaderID+MemID to icntID)
GPGPU-Sim uArch: Memory nodes ID start from index: 15
GPGPU-Sim uArch:    0   1   2   3   4
GPGPU-Sim uArch:    5   6   7   8   9
GPGPU-Sim uArch:   10  11  12  13  14
GPGPU-Sim uArch:   15  16  17  18  19
GPGPU-Sim uArch:   20  21  22  23  24
GPGPU-Sim uArch:   25  26
GPGPU-Sim uArch: interconnect node reverse map (icntID to shaderID+MemID)
GPGPU-Sim uArch: Memory nodes start from ID: 15
GPGPU-Sim uArch:    0   1   2   3   4
GPGPU-Sim uArch:    5   6   7   8   9
GPGPU-Sim uArch:   10  11  12  13  14
GPGPU-Sim uArch:   15  16  17  18  19
GPGPU-Sim uArch:   20  21  22  23  24
GPGPU-Sim uArch:   25  26
db8fd71b22e5f9e87a0df9a155b78fdf  /home/scratch/adwait/applications/benchmarks/CUDA/KMN/gpgpu_ptx_sim__KMN
GPGPU-Sim uArch: performance model initialization complete.
GPGPU-Sim PTX: __cudaRegisterFatBinary, fat_cubin_handle = 1, filename=kmeans_cuda.cu
self exe links to: /home/scratch/adwait/applications/benchmarks/CUDA/KMN/gpgpu_ptx_sim__KMN
Running md5sum using "md5sum /home/scratch/adwait/applications/benchmarks/CUDA/KMN/gpgpu_ptx_sim__KMN "
Running cuobjdump using "$CUDA_INSTALL_PATH/bin/cuobjdump -ptx -elf -sass /home/scratch/adwait/applications/benchmarks/CUDA/KMN/gpgpu_ptx_sim__KMN > _cuobjdump_complete_output_Jo1yL1"
Parsing file _cuobjdump_complete_output_Jo1yL1
######### cuobjdump parser ########
## Adding new section ELF
Adding arch: sm_20
Adding identifier: kmeans_cuda.cu
## Adding new section PTX
Adding ptx filename: _cuobjdump_1.ptx
Adding arch: sm_20
Adding identifier: kmeans_cuda.cu
Done parsing!!!
GPGPU-Sim PTX: __cudaRegisterFunction _Z11kmeansPointPfiiiPiS_S_S0_ : hostFun 0x0x402c28, fat_cubin_handle = 1
GPGPU-Sim PTX: instruction assembly for function '_Z14invert_mappingPfS_ii'...   done.
GPGPU-Sim PTX: finding reconvergence points for '_Z14invert_mappingPfS_ii'...
GPGPU-Sim PTX: Finding dominators for '_Z14invert_mappingPfS_ii'...
GPGPU-Sim PTX: Finding immediate dominators for '_Z14invert_mappingPfS_ii'...
GPGPU-Sim PTX: Finding postdominators for '_Z14invert_mappingPfS_ii'...
GPGPU-Sim PTX: Finding immediate postdominators for '_Z14invert_mappingPfS_ii'...
GPGPU-Sim PTX: pre-decoding instructions for '_Z14invert_mappingPfS_ii'...
GPGPU-Sim PTX: reconvergence points for _Z14invert_mappingPfS_ii...
GPGPU-Sim PTX:  1 (potential) branch divergence @  PC=0x038 (_1.ptx:70) @%p1 bra $Lt_0_2050;
GPGPU-Sim PTX:    immediate post dominator      @  PC=0x110 (_1.ptx:103) exit;
GPGPU-Sim PTX:  2 (potential) branch divergence @  PC=0x058 (_1.ptx:74) @%p2 bra $Lt_0_2562;
GPGPU-Sim PTX:    immediate post dominator      @  PC=0x110 (_1.ptx:103) exit;
GPGPU-Sim PTX:  3 (potential) branch divergence @  PC=0x108 (_1.ptx:99) @%p3 bra $Lt_0_3074;
GPGPU-Sim PTX:    immediate post dominator      @  PC=0x110 (_1.ptx:103) exit;
GPGPU-Sim PTX: ... end of reconvergence points for _Z14invert_mappingPfS_ii
GPGPU-Sim PTX: ... done pre-decoding instructions for '_Z14invert_mappingPfS_ii'.
GPGPU-Sim PTX: instruction assembly for function '_Z11kmeansPointPfiiiPiS_S_S0_'...   done.
GPGPU-Sim PTX: finding reconvergence points for '_Z11kmeansPointPfiiiPiS_S_S0_'...
GPGPU-Sim PTX: Finding dominators for '_Z11kmeansPointPfiiiPiS_S_S0_'...
GPGPU-Sim PTX: Finding immediate dominators for '_Z11kmeansPointPfiiiPiS_S_S0_'...
GPGPU-Sim PTX: Finding postdominators for '_Z11kmeansPointPfiiiPiS_S_S0_'...
GPGPU-Sim PTX: Finding immediate postdominators for '_Z11kmeansPointPfiiiPiS_S_S0_'...
GPGPU-Sim PTX: pre-decoding instructions for '_Z11kmeansPointPfiiiPiS_S_S0_'...
GPGPU-Sim PTX: reconvergence points for _Z11kmeansPointPfiiiPiS_S_S0_...
GPGPU-Sim PTX:  1 (potential) branch divergence @  PC=0x180 (_1.ptx:136) @!%p1 bra $Lt_1_4866;
GPGPU-Sim PTX:    immediate post dominator      @  PC=0x320 (_1.ptx:202) @!%p1 bra $Lt_1_7682;
GPGPU-Sim PTX:  2 (potential) branch divergence @  PC=0x1a0 (_1.ptx:140) @%p2 bra $Lt_1_8194;
GPGPU-Sim PTX:    immediate post dominator      @  PC=0x320 (_1.ptx:202) @!%p1 bra $Lt_1_7682;
GPGPU-Sim PTX:  3 (potential) branch divergence @  PC=0x1e8 (_1.ptx:151) @!%p3 bra $Lt_1_8450;
GPGPU-Sim PTX:    immediate post dominator      @  PC=0x2c8 (_1.ptx:185) setp.lt.f32 %p5, %f2, %f1;
GPGPU-Sim PTX:  4 (potential) branch divergence @  PC=0x2b0 (_1.ptx:180) @%p4 bra $Lt_1_6402;
GPGPU-Sim PTX:    immediate post dominator      @  PC=0x2b8 (_1.ptx:181) bra.uni $Lt_1_5890;
GPGPU-Sim PTX:  5 (potential) branch divergence @  PC=0x2b8 (_1.ptx:181) bra.uni $Lt_1_5890;
GPGPU-Sim PTX:    immediate post dominator      @  PC=0x2c8 (_1.ptx:185) setp.lt.f32 %p5, %f2, %f1;
GPGPU-Sim PTX:  6 (potential) branch divergence @  PC=0x2d0 (_1.ptx:186) @!%p5 bra $Lt_1_6914;
GPGPU-Sim PTX:    immediate post dominator      @  PC=0x2e8 (_1.ptx:192) add.s32 %r18, %r18, 1;
GPGPU-Sim PTX:  7 (potential) branch divergence @  PC=0x2f8 (_1.ptx:194) @%p6 bra $Lt_1_5634;
GPGPU-Sim PTX:    immediate post dominator      @  PC=0x300 (_1.ptx:195) bra.uni $Lt_1_4610;
GPGPU-Sim PTX:  8 (potential) branch divergence @  PC=0x300 (_1.ptx:195) bra.uni $Lt_1_4610;
GPGPU-Sim PTX:    immediate post dominator      @  PC=0x320 (_1.ptx:202) @!%p1 bra $Lt_1_7682;
GPGPU-Sim PTX:  9 (potential) branch divergence @  PC=0x310 (_1.ptx:198) bra.uni $Lt_1_4610;
GPGPU-Sim PTX:    immediate post dominator      @  PC=0x320 (_1.ptx:202) @!%p1 bra $Lt_1_7682;
GPGPU-Sim PTX: 10 (potential) branch divergence @  PC=0x320 (_1.ptx:202) @!%p1 bra $Lt_1_7682;
GPGPU-Sim PTX:    immediate post dominator      @  PC=0x350 (_1.ptx:211) exit;
GPGPU-Sim PTX: ... end of reconvergence points for _Z11kmeansPointPfiiiPiS_S_S0_
GPGPU-Sim PTX: ... done pre-decoding instructions for '_Z11kmeansPointPfiiiPiS_S_S0_'.
GPGPU-Sim PTX: allocating global region for "t_features" from 0x100 to 0x104 (global memory space)
GPGPU-Sim PTX: allocating global region for "t_features_flipped" from 0x104 to 0x108 (global memory space)
GPGPU-Sim PTX: allocating global region for "t_clusters" from 0x108 to 0x10c (global memory space)
GPGPU-Sim PTX: finished parsing EMBEDDED .ptx file _1.ptx
Adding _cuobjdump_1.ptx with cubin handle 1
GPGPU-Sim PTX: extracting embedded .ptx to temporary file "_ptx_sFIePg"
Running: cat _ptx_sFIePg | sed 's/.version 1.5/.version 1.4/' | sed 's/, texmode_independent//' | sed 's/\(\.extern \.const\[1\] .b8 \w\+\)\[\]/\1\[1\]/' | sed 's/const\[.\]/const\[0\]/g' > _ptx2_AufcTv
GPGPU-Sim PTX: generating ptxinfo using "$CUDA_INSTALL_PATH/bin/ptxas --gpu-name=sm_20 -v _ptx2_AufcTv --output-file  /dev/null 2> _ptx_sFIePginfo"
GPGPU-Sim PTX: Kernel '_Z11kmeansPointPfiiiPiS_S_S0_' : regs=15, lmem=0, smem=0, cmem=88
GPGPU-Sim PTX: Kernel '_Z14invert_mappingPfS_ii' : regs=10, lmem=0, smem=0, cmem=56
GPGPU-Sim PTX: removing ptxinfo using "rm -f _ptx_sFIePg _ptx2_AufcTv _ptx_sFIePginfo"
GPGPU-Sim PTX: loading globals with explicit initializers... 
GPGPU-Sim PTX: finished loading globals (0 bytes total).
GPGPU-Sim PTX: loading constants with explicit initializers...  done.
GPGPU-Sim PTX: __cudaRegisterFunction _Z14invert_mappingPfS_ii : hostFun 0x0x402a98, fat_cubin_handle = 1
GPGPU-Sim PTX: in __cudaRegisterTexture:
GPGPU-Sim PTX:   int dim = 1
GPGPU-Sim PTX:   int norm = 0
GPGPU-Sim PTX:   int ext = 0
GPGPU-Sim PTX:   Execution warning: Not finished implementing "void __cudaRegisterTexture(void**, const textureReference*, const void**, const char*, int, int, int)"
GPGPU-Sim PTX: in __cudaRegisterTexture:
GPGPU-Sim PTX:   int dim = 1
GPGPU-Sim PTX:   int norm = 0
GPGPU-Sim PTX:   int ext = 0
GPGPU-Sim PTX:   Execution warning: Not finished implementing "void __cudaRegisterTexture(void**, const textureReference*, const void**, const char*, int, int, int)"
GPGPU-Sim PTX: in __cudaRegisterTexture:
GPGPU-Sim PTX:   int dim = 1
GPGPU-Sim PTX:   int norm = 0
GPGPU-Sim PTX:   int ext = 0
GPGPU-Sim PTX:   Execution warning: Not finished implementing "void __cudaRegisterTexture(void**, const textureReference*, const void**, const char*, int, int, int)"

I/O completed

Number of objects: 28672
Number of features: 138

GPGPU-Sim PTX: cudaLaunch for 0x0x402c28 (mode=performance simulation) on stream 0
GPGPU-Sim PTX: pushing kernel '_Z11kmeansPointPfiiiPiS_S_S0_' to stream 0, gridDim= (11,11,1) blockDim = (256,1,1) 
kernel '_Z11kmeansPointPfiiiPiS_S_S0_' transfer to GPU hardware scheduler
GPGPU-Sim uArch: Shader 1 bind to kernel 1 '_Z11kmeansPointPfiiiPiS_S_S0_'
GPGPU-Sim uArch: CTA/core = 6, limited by: threads
GPGPU-Sim uArch: core:  1, cta: 0 initialized @(1,0)
GPGPU-Sim uArch: Shader 2 bind to kernel 1 '_Z11kmeansPointPfiiiPiS_S_S0_'
GPGPU-Sim uArch: core:  2, cta: 0 initialized @(1,0)
GPGPU-Sim uArch: Shader 3 bind to kernel 1 '_Z11kmeansPointPfiiiPiS_S_S0_'
GPGPU-Sim uArch: core:  3, cta: 0 initialized @(1,0)
GPGPU-Sim uArch: Shader 4 bind to kernel 1 '_Z11kmeansPointPfiiiPiS_S_S0_'
GPGPU-Sim uArch: core:  4, cta: 0 initialized @(1,0)
GPGPU-Sim uArch: Shader 5 bind to kernel 1 '_Z11kmeansPointPfiiiPiS_S_S0_'
GPGPU-Sim uArch: core:  5, cta: 0 initialized @(1,0)
GPGPU-Sim uArch: Shader 6 bind to kernel 1 '_Z11kmeansPointPfiiiPiS_S_S0_'
GPGPU-Sim uArch: core:  6, cta: 0 initialized @(1,0)
GPGPU-Sim uArch: Shader 7 bind to kernel 1 '_Z11kmeansPointPfiiiPiS_S_S0_'
GPGPU-Sim uArch: core:  7, cta: 0 initialized @(1,0)
GPGPU-Sim uArch: Shader 8 bind to kernel 1 '_Z11kmeansPointPfiiiPiS_S_S0_'
GPGPU-Sim uArch: core:  8, cta: 0 initialized @(1,0)
GPGPU-Sim uArch: Shader 9 bind to kernel 1 '_Z11kmeansPointPfiiiPiS_S_S0_'
GPGPU-Sim uArch: core:  9, cta: 0 initialized @(1,0)
GPGPU-Sim uArch: Shader 10 bind to kernel 1 '_Z11kmeansPointPfiiiPiS_S_S0_'
GPGPU-Sim uArch: core: 10, cta: 0 initialized @(1,0)
GPGPU-Sim uArch: Shader 11 bind to kernel 1 '_Z11kmeansPointPfiiiPiS_S_S0_'
GPGPU-Sim uArch: core: 11, cta: 0 initialized @(1,0)
GPGPU-Sim uArch: Shader 12 bind to kernel 1 '_Z11kmeansPointPfiiiPiS_S_S0_'
GPGPU-Sim uArch: core: 12, cta: 0 initialized @(1,0)
GPGPU-Sim uArch: Shader 13 bind to kernel 1 '_Z11kmeansPointPfiiiPiS_S_S0_'
GPGPU-Sim uArch: core: 13, cta: 0 initialized @(1,0)
GPGPU-Sim uArch: Shader 14 bind to kernel 1 '_Z11kmeansPointPfiiiPiS_S_S0_'
GPGPU-Sim uArch: core: 14, cta: 0 initialized @(1,0)
GPGPU-Sim uArch: Shader 0 bind to kernel 1 '_Z11kmeansPointPfiiiPiS_S_S0_'
GPGPU-Sim uArch: core:  0, cta: 0 initialized @(1,0)
GPGPU-Sim uArch: core:  1, cta: 1 initialized @(2,0)
GPGPU-Sim uArch: core:  2, cta: 1 initialized @(2,0)
GPGPU-Sim uArch: core:  3, cta: 1 initialized @(2,0)
GPGPU-Sim uArch: core:  4, cta: 1 initialized @(2,0)
GPGPU-Sim uArch: core:  5, cta: 1 initialized @(2,0)
GPGPU-Sim uArch: core:  6, cta: 1 initialized @(2,0)
GPGPU-Sim uArch: core:  7, cta: 1 initialized @(2,0)
GPGPU-Sim uArch: core:  8, cta: 1 initialized @(2,0)
GPGPU-Sim uArch: core:  9, cta: 1 initialized @(2,0)
GPGPU-Sim uArch: core: 10, cta: 1 initialized @(2,0)
GPGPU-Sim uArch: core: 11, cta: 1 initialized @(2,0)
GPGPU-Sim uArch: core: 12, cta: 1 initialized @(2,0)
GPGPU-Sim uArch: core: 13, cta: 1 initialized @(2,0)
GPGPU-Sim uArch: core: 14, cta: 1 initialized @(2,0)
GPGPU-Sim uArch: core:  0, cta: 1 initialized @(2,0)
GPGPU-Sim uArch: core:  1, cta: 2 initialized @(3,0)
GPGPU-Sim uArch: core:  2, cta: 2 initialized @(3,0)
GPGPU-Sim uArch: core:  3, cta: 2 initialized @(3,0)
GPGPU-Sim uArch: core:  4, cta: 2 initialized @(3,0)
GPGPU-Sim uArch: core:  5, cta: 2 initialized @(3,0)
GPGPU-Sim uArch: core:  6, cta: 2 initialized @(3,0)
GPGPU-Sim uArch: core:  7, cta: 2 initialized @(3,0)
GPGPU-Sim uArch: core:  8, cta: 2 initialized @(3,0)
GPGPU-Sim uArch: core:  9, cta: 2 initialized @(3,0)
GPGPU-Sim uArch: core: 10, cta: 2 initialized @(3,0)
GPGPU-Sim uArch: core: 11, cta: 2 initialized @(3,0)
GPGPU-Sim uArch: core: 12, cta: 2 initialized @(3,0)
GPGPU-Sim uArch: core: 13, cta: 2 initialized @(3,0)
GPGPU-Sim uArch: core: 14, cta: 2 initialized @(3,0)
GPGPU-Sim uArch: core:  0, cta: 2 initialized @(3,0)
GPGPU-Sim uArch: core:  1, cta: 3 initialized @(4,0)
GPGPU-Sim uArch: core:  2, cta: 3 initialized @(4,0)
GPGPU-Sim uArch: core:  3, cta: 3 initialized @(4,0)
GPGPU-Sim uArch: core:  4, cta: 3 initialized @(4,0)
GPGPU-Sim uArch: core:  5, cta: 3 initialized @(4,0)
GPGPU-Sim uArch: core:  6, cta: 3 initialized @(4,0)
GPGPU-Sim uArch: core:  7, cta: 3 initialized @(4,0)
GPGPU-Sim uArch: core:  8, cta: 3 initialized @(4,0)
GPGPU-Sim uArch: core:  9, cta: 3 initialized @(4,0)
GPGPU-Sim uArch: core: 10, cta: 3 initialized @(4,0)
GPGPU-Sim uArch: core: 11, cta: 3 initialized @(4,0)
GPGPU-Sim uArch: core: 12, cta: 3 initialized @(4,0)
GPGPU-Sim uArch: core: 13, cta: 3 initialized @(4,0)
GPGPU-Sim uArch: core: 14, cta: 3 initialized @(4,0)
GPGPU-Sim uArch: core:  0, cta: 3 initialized @(4,0)
GPGPU-Sim uArch: core:  1, cta: 4 initialized @(5,0)
GPGPU-Sim uArch: core:  2, cta: 4 initialized @(5,0)
GPGPU-Sim uArch: core:  3, cta: 4 initialized @(5,0)
GPGPU-Sim uArch: core:  4, cta: 4 initialized @(5,0)
GPGPU-Sim uArch: core:  5, cta: 4 initialized @(5,0)
GPGPU-Sim uArch: core:  6, cta: 4 initialized @(5,0)
GPGPU-Sim uArch: core:  7, cta: 4 initialized @(5,0)
GPGPU-Sim uArch: core:  8, cta: 4 initialized @(5,0)
GPGPU-Sim uArch: core:  9, cta: 4 initialized @(5,0)
GPGPU-Sim uArch: core: 10, cta: 4 initialized @(5,0)
GPGPU-Sim uArch: core: 11, cta: 4 initialized @(5,0)
GPGPU-Sim uArch: core: 12, cta: 4 initialized @(5,0)
GPGPU-Sim uArch: core: 13, cta: 4 initialized @(5,0)
GPGPU-Sim uArch: core: 14, cta: 4 initialized @(5,0)
GPGPU-Sim uArch: core:  0, cta: 4 initialized @(5,0)
GPGPU-Sim uArch: core:  1, cta: 5 initialized @(6,0)
GPGPU-Sim uArch: core:  2, cta: 5 initialized @(6,0)
GPGPU-Sim uArch: core:  3, cta: 5 initialized @(6,0)
GPGPU-Sim uArch: core:  4, cta: 5 initialized @(6,0)
GPGPU-Sim uArch: core:  5, cta: 5 initialized @(6,0)
GPGPU-Sim uArch: core:  6, cta: 5 initialized @(6,0)
GPGPU-Sim uArch: core:  7, cta: 5 initialized @(6,0)
GPGPU-Sim uArch: core:  8, cta: 5 initialized @(6,0)
GPGPU-Sim uArch: core:  9, cta: 5 initialized @(6,0)
GPGPU-Sim uArch: core: 10, cta: 5 initialized @(6,0)
GPGPU-Sim uArch: core: 11, cta: 5 initialized @(6,0)
GPGPU-Sim uArch: core: 12, cta: 5 initialized @(6,0)
GPGPU-Sim uArch: core: 13, cta: 5 initialized @(6,0)
GPGPU-Sim uArch: core: 14, cta: 5 initialized @(6,0)
GPGPU-Sim uArch: core:  0, cta: 5 initialized @(6,0)
GPGPU-Sim PTX: 100000 instructions simulated : ctaid=(7,7,0) tid=(159,0,0)
GPGPU-Sim uArch: cycles simulated: 500  inst.: 147456 (ipc=294.9) sim_rate=73728 (inst/sec) elapsed = 0:0:00:02 / Tue Apr 16 16:54:34 2019
GPGPU-Sim PTX: 200000 instructions simulated : ctaid=(2,2,0) tid=(223,0,0)
GPGPU-Sim PTX: 300000 instructions simulated : ctaid=(3,5,0) tid=(255,0,0)
GPGPU-Sim PTX: 400000 instructions simulated : ctaid=(9,7,0) tid=(191,0,0)
GPGPU-Sim PTX: 500000 instructions simulated : ctaid=(9,4,0) tid=(191,0,0)
GPGPU-Sim PTX: 600000 instructions simulated : ctaid=(3,5,0) tid=(223,0,0)
GPGPU-Sim uArch: cycles simulated: 1500  inst.: 615616 (ipc=410.4) sim_rate=205205 (inst/sec) elapsed = 0:0:00:03 / Tue Apr 16 16:54:35 2019
GPGPU-Sim PTX: 700000 instructions simulated : ctaid=(1,4,0) tid=(159,0,0)
GPGPU-Sim PTX: 800000 instructions simulated : ctaid=(4,5,0) tid=(31,0,0)
GPGPU-Sim PTX: 900000 instructions simulated : ctaid=(0,5,0) tid=(63,0,0)
GPGPU-Sim uArch: cycles simulated: 2000  inst.: 849280 (ipc=424.6) sim_rate=212320 (inst/sec) elapsed = 0:0:00:04 / Tue Apr 16 16:54:36 2019
GPGPU-Sim uArch: cycles simulated: 3500  inst.: 854720 (ipc=244.2) sim_rate=170944 (inst/sec) elapsed = 0:0:00:05 / Tue Apr 16 16:54:37 2019
GPGPU-Sim uArch: cycles simulated: 5500  inst.: 873856 (ipc=158.9) sim_rate=145642 (inst/sec) elapsed = 0:0:00:06 / Tue Apr 16 16:54:38 2019
GPGPU-Sim uArch: cycles simulated: 7000  inst.: 888608 (ipc=126.9) sim_rate=126944 (inst/sec) elapsed = 0:0:00:07 / Tue Apr 16 16:54:39 2019
GPGPU-Sim uArch: cycles simulated: 8500  inst.: 905760 (ipc=106.6) sim_rate=113220 (inst/sec) elapsed = 0:0:00:08 / Tue Apr 16 16:54:40 2019
GPGPU-Sim PTX: 1000000 instructions simulated : ctaid=(4,0,0) tid=(95,0,0)
GPGPU-Sim uArch: cycles simulated: 10500  inst.: 931936 (ipc=88.8) sim_rate=103548 (inst/sec) elapsed = 0:0:00:09 / Tue Apr 16 16:54:41 2019
GPGPU-Sim uArch: cycles simulated: 12000  inst.: 949984 (ipc=79.2) sim_rate=94998 (inst/sec) elapsed = 0:0:00:10 / Tue Apr 16 16:54:42 2019
GPGPU-Sim uArch: cycles simulated: 13500  inst.: 966528 (ipc=71.6) sim_rate=87866 (inst/sec) elapsed = 0:0:00:11 / Tue Apr 16 16:54:43 2019
GPGPU-Sim uArch: cycles simulated: 15000  inst.: 981792 (ipc=65.5) sim_rate=81816 (inst/sec) elapsed = 0:0:00:12 / Tue Apr 16 16:54:44 2019
GPGPU-Sim uArch: cycles simulated: 16500  inst.: 1000736 (ipc=60.7) sim_rate=76979 (inst/sec) elapsed = 0:0:00:13 / Tue Apr 16 16:54:45 2019
GPGPU-Sim PTX: 1100000 instructions simulated : ctaid=(7,2,0) tid=(95,0,0)
GPGPU-Sim uArch: cycles simulated: 18500  inst.: 1029952 (ipc=55.7) sim_rate=73568 (inst/sec) elapsed = 0:0:00:14 / Tue Apr 16 16:54:46 2019
GPGPU-Sim uArch: cycles simulated: 20000  inst.: 1044384 (ipc=52.2) sim_rate=69625 (inst/sec) elapsed = 0:0:00:15 / Tue Apr 16 16:54:47 2019
GPGPU-Sim uArch: cycles simulated: 21000  inst.: 1055840 (ipc=50.3) sim_rate=65990 (inst/sec) elapsed = 0:0:00:16 / Tue Apr 16 16:54:48 2019
GPGPU-Sim uArch: cycles simulated: 22500  inst.: 1076000 (ipc=47.8) sim_rate=63294 (inst/sec) elapsed = 0:0:00:17 / Tue Apr 16 16:54:49 2019
GPGPU-Sim uArch: cycles simulated: 24000  inst.: 1090688 (ipc=45.4) sim_rate=60593 (inst/sec) elapsed = 0:0:00:18 / Tue Apr 16 16:54:50 2019
GPGPU-Sim uArch: cycles simulated: 25500  inst.: 1106432 (ipc=43.4) sim_rate=58233 (inst/sec) elapsed = 0:0:00:19 / Tue Apr 16 16:54:51 2019
GPGPU-Sim uArch: cycles simulated: 26500  inst.: 1123008 (ipc=42.4) sim_rate=56150 (inst/sec) elapsed = 0:0:00:20 / Tue Apr 16 16:54:52 2019
GPGPU-Sim PTX: 1200000 instructions simulated : ctaid=(5,2,0) tid=(95,0,0)
GPGPU-Sim uArch: cycles simulated: 28000  inst.: 1142272 (ipc=40.8) sim_rate=54393 (inst/sec) elapsed = 0:0:00:21 / Tue Apr 16 16:54:53 2019
GPGPU-Sim uArch: cycles simulated: 30000  inst.: 1170144 (ipc=39.0) sim_rate=53188 (inst/sec) elapsed = 0:0:00:22 / Tue Apr 16 16:54:54 2019
GPGPU-Sim uArch: cycles simulated: 31500  inst.: 1189600 (ipc=37.8) sim_rate=51721 (inst/sec) elapsed = 0:0:00:23 / Tue Apr 16 16:54:55 2019
GPGPU-Sim uArch: cycles simulated: 33500  inst.: 1213664 (ipc=36.2) sim_rate=50569 (inst/sec) elapsed = 0:0:00:24 / Tue Apr 16 16:54:56 2019
GPGPU-Sim uArch: cycles simulated: 34500  inst.: 1224704 (ipc=35.5) sim_rate=48988 (inst/sec) elapsed = 0:0:00:25 / Tue Apr 16 16:54:57 2019
GPGPU-Sim PTX: 1300000 instructions simulated : ctaid=(3,0,0) tid=(95,0,0)
GPGPU-Sim uArch: cycles simulated: 35500  inst.: 1237248 (ipc=34.9) sim_rate=47586 (inst/sec) elapsed = 0:0:00:26 / Tue Apr 16 16:54:58 2019
GPGPU-Sim uArch: cycles simulated: 37500  inst.: 1264416 (ipc=33.7) sim_rate=46830 (inst/sec) elapsed = 0:0:00:27 / Tue Apr 16 16:54:59 2019
GPGPU-Sim uArch: cycles simulated: 39000  inst.: 1282688 (ipc=32.9) sim_rate=45810 (inst/sec) elapsed = 0:0:00:28 / Tue Apr 16 16:55:00 2019
GPGPU-Sim uArch: cycles simulated: 41000  inst.: 1307616 (ipc=31.9) sim_rate=45090 (inst/sec) elapsed = 0:0:00:29 / Tue Apr 16 16:55:01 2019
GPGPU-Sim uArch: cycles simulated: 42500  inst.: 1327136 (ipc=31.2) sim_rate=44237 (inst/sec) elapsed = 0:0:00:30 / Tue Apr 16 16:55:02 2019
GPGPU-Sim PTX: 1400000 instructions simulated : ctaid=(0,0,0) tid=(31,0,0)
GPGPU-Sim uArch: cycles simulated: 44000  inst.: 1347584 (ipc=30.6) sim_rate=43470 (inst/sec) elapsed = 0:0:00:31 / Tue Apr 16 16:55:03 2019
GPGPU-Sim uArch: cycles simulated: 45000  inst.: 1362272 (ipc=30.3) sim_rate=42571 (inst/sec) elapsed = 0:0:00:32 / Tue Apr 16 16:55:04 2019
GPGPU-Sim uArch: cycles simulated: 46500  inst.: 1378912 (ipc=29.7) sim_rate=41785 (inst/sec) elapsed = 0:0:00:33 / Tue Apr 16 16:55:05 2019
GPGPU-Sim uArch: cycles simulated: 48500  inst.: 1405088 (ipc=29.0) sim_rate=41326 (inst/sec) elapsed = 0:0:00:34 / Tue Apr 16 16:55:06 2019
GPGPU-Sim uArch: cycles simulated: 50000  inst.: 1420704 (ipc=28.4) sim_rate=40591 (inst/sec) elapsed = 0:0:00:35 / Tue Apr 16 16:55:07 2019
GPGPU-Sim PTX: 1500000 instructions simulated : ctaid=(2,1,0) tid=(31,0,0)
GPGPU-Sim uArch: cycles simulated: 52000  inst.: 1448704 (ipc=27.9) sim_rate=40241 (inst/sec) elapsed = 0:0:00:36 / Tue Apr 16 16:55:08 2019
GPGPU-Sim uArch: cycles simulated: 53500  inst.: 1464672 (ipc=27.4) sim_rate=39585 (inst/sec) elapsed = 0:0:00:37 / Tue Apr 16 16:55:09 2019
GPGPU-Sim uArch: cycles simulated: 55500  inst.: 1490848 (ipc=26.9) sim_rate=39232 (inst/sec) elapsed = 0:0:00:38 / Tue Apr 16 16:55:10 2019
GPGPU-Sim uArch: cycles simulated: 57000  inst.: 1509792 (ipc=26.5) sim_rate=38712 (inst/sec) elapsed = 0:0:00:39 / Tue Apr 16 16:55:11 2019
GPGPU-Sim PTX: 1600000 instructions simulated : ctaid=(9,0,0) tid=(223,0,0)
GPGPU-Sim uArch: cycles simulated: 58500  inst.: 1531936 (ipc=26.2) sim_rate=38298 (inst/sec) elapsed = 0:0:00:40 / Tue Apr 16 16:55:12 2019
GPGPU-Sim uArch: cycles simulated: 60000  inst.: 1553216 (ipc=25.9) sim_rate=37883 (inst/sec) elapsed = 0:0:00:41 / Tue Apr 16 16:55:13 2019
GPGPU-Sim uArch: cycles simulated: 62000  inst.: 1575936 (ipc=25.4) sim_rate=37522 (inst/sec) elapsed = 0:0:00:42 / Tue Apr 16 16:55:14 2019
GPGPU-Sim uArch: cycles simulated: 63500  inst.: 1597632 (ipc=25.2) sim_rate=37154 (inst/sec) elapsed = 0:0:00:43 / Tue Apr 16 16:55:15 2019
GPGPU-Sim uArch: cycles simulated: 65000  inst.: 1614528 (ipc=24.8) sim_rate=36693 (inst/sec) elapsed = 0:0:00:44 / Tue Apr 16 16:55:16 2019
GPGPU-Sim PTX: 1700000 instructions simulated : ctaid=(1,1,0) tid=(31,0,0)
GPGPU-Sim uArch: cycles simulated: 67000  inst.: 1647648 (ipc=24.6) sim_rate=36614 (inst/sec) elapsed = 0:0:00:45 / Tue Apr 16 16:55:17 2019
GPGPU-Sim uArch: cycles simulated: 68500  inst.: 1666688 (ipc=24.3) sim_rate=36232 (inst/sec) elapsed = 0:0:00:46 / Tue Apr 16 16:55:18 2019
GPGPU-Sim uArch: cycles simulated: 70500  inst.: 1691584 (ipc=24.0) sim_rate=35991 (inst/sec) elapsed = 0:0:00:47 / Tue Apr 16 16:55:19 2019
GPGPU-Sim uArch: cycles simulated: 72000  inst.: 1711488 (ipc=23.8) sim_rate=35656 (inst/sec) elapsed = 0:0:00:48 / Tue Apr 16 16:55:20 2019
GPGPU-Sim PTX: 1800000 instructions simulated : ctaid=(9,1,0) tid=(95,0,0)
GPGPU-Sim uArch: cycles simulated: 73500  inst.: 1729472 (ipc=23.5) sim_rate=35295 (inst/sec) elapsed = 0:0:00:49 / Tue Apr 16 16:55:21 2019
GPGPU-Sim uArch: cycles simulated: 75500  inst.: 1760256 (ipc=23.3) sim_rate=35205 (inst/sec) elapsed = 0:0:00:50 / Tue Apr 16 16:55:22 2019
GPGPU-Sim uArch: cycles simulated: 77000  inst.: 1776960 (ipc=23.1) sim_rate=34842 (inst/sec) elapsed = 0:0:00:51 / Tue Apr 16 16:55:23 2019
GPGPU-Sim uArch: cycles simulated: 79000  inst.: 1800832 (ipc=22.8) sim_rate=34631 (inst/sec) elapsed = 0:0:00:52 / Tue Apr 16 16:55:24 2019
GPGPU-Sim uArch: cycles simulated: 80500  inst.: 1820832 (ipc=22.6) sim_rate=34355 (inst/sec) elapsed = 0:0:00:53 / Tue Apr 16 16:55:25 2019
GPGPU-Sim PTX: 1900000 instructions simulated : ctaid=(0,0,0) tid=(95,0,0)
GPGPU-Sim uArch: cycles simulated: 82000  inst.: 1840288 (ipc=22.4) sim_rate=34079 (inst/sec) elapsed = 0:0:00:54 / Tue Apr 16 16:55:26 2019
GPGPU-Sim uArch: cycles simulated: 83500  inst.: 1862272 (ipc=22.3) sim_rate=33859 (inst/sec) elapsed = 0:0:00:55 / Tue Apr 16 16:55:27 2019
GPGPU-Sim uArch: cycles simulated: 85500  inst.: 1883168 (ipc=22.0) sim_rate=33628 (inst/sec) elapsed = 0:0:00:56 / Tue Apr 16 16:55:28 2019
GPGPU-Sim uArch: cycles simulated: 87000  inst.: 1904512 (ipc=21.9) sim_rate=33412 (inst/sec) elapsed = 0:0:00:57 / Tue Apr 16 16:55:29 2019
GPGPU-Sim uArch: cycles simulated: 88500  inst.: 1924480 (ipc=21.7) sim_rate=33180 (inst/sec) elapsed = 0:0:00:58 / Tue Apr 16 16:55:30 2019
GPGPU-Sim PTX: 2000000 instructions simulated : ctaid=(4,0,0) tid=(31,0,0)
GPGPU-Sim uArch: cycles simulated: 90000  inst.: 1943296 (ipc=21.6) sim_rate=32937 (inst/sec) elapsed = 0:0:00:59 / Tue Apr 16 16:55:31 2019
GPGPU-Sim uArch: cycles simulated: 91500  inst.: 1961184 (ipc=21.4) sim_rate=32686 (inst/sec) elapsed = 0:0:01:00 / Tue Apr 16 16:55:32 2019
GPGPU-Sim uArch: cycles simulated: 93000  inst.: 1985920 (ipc=21.4) sim_rate=32556 (inst/sec) elapsed = 0:0:01:01 / Tue Apr 16 16:55:33 2019
GPGPU-Sim uArch: cycles simulated: 95000  inst.: 2010336 (ipc=21.2) sim_rate=32424 (inst/sec) elapsed = 0:0:01:02 / Tue Apr 16 16:55:34 2019
GPGPU-Sim PTX: 2100000 instructions simulated : ctaid=(10,0,0) tid=(31,0,0)
GPGPU-Sim uArch: cycles simulated: 96500  inst.: 2031520 (ipc=21.1) sim_rate=32246 (inst/sec) elapsed = 0:0:01:03 / Tue Apr 16 16:55:35 2019
GPGPU-Sim uArch: cycles simulated: 97500  inst.: 2043232 (ipc=21.0) sim_rate=31925 (inst/sec) elapsed = 0:0:01:04 / Tue Apr 16 16:55:36 2019
GPGPU-Sim uArch: cycles simulated: 99000  inst.: 2059456 (ipc=20.8) sim_rate=31683 (inst/sec) elapsed = 0:0:01:05 / Tue Apr 16 16:55:37 2019
GPGPU-Sim uArch: cycles simulated: 100500  inst.: 2080960 (ipc=20.7) sim_rate=31529 (inst/sec) elapsed = 0:0:01:06 / Tue Apr 16 16:55:38 2019
GPGPU-Sim uArch: cycles simulated: 101500  inst.: 2094496 (ipc=20.6) sim_rate=31261 (inst/sec) elapsed = 0:0:01:07 / Tue Apr 16 16:55:39 2019
GPGPU-Sim uArch: cycles simulated: 103500  inst.: 2120704 (ipc=20.5) sim_rate=31186 (inst/sec) elapsed = 0:0:01:08 / Tue Apr 16 16:55:40 2019
GPGPU-Sim PTX: 2200000 instructions simulated : ctaid=(1,1,0) tid=(95,0,0)
GPGPU-Sim uArch: cycles simulated: 105000  inst.: 2140160 (ipc=20.4) sim_rate=31016 (inst/sec) elapsed = 0:0:01:09 / Tue Apr 16 16:55:41 2019
GPGPU-Sim uArch: cycles simulated: 106500  inst.: 2162432 (ipc=20.3) sim_rate=30891 (inst/sec) elapsed = 0:0:01:10 / Tue Apr 16 16:55:42 2019
GPGPU-Sim uArch: cycles simulated: 108000  inst.: 2182688 (ipc=20.2) sim_rate=30742 (inst/sec) elapsed = 0:0:01:11 / Tue Apr 16 16:55:43 2019
GPGPU-Sim uArch: cycles simulated: 109500  inst.: 2197984 (ipc=20.1) sim_rate=30527 (inst/sec) elapsed = 0:0:01:12 / Tue Apr 16 16:55:44 2019
GPGPU-Sim uArch: cycles simulated: 111500  inst.: 2226528 (ipc=20.0) sim_rate=30500 (inst/sec) elapsed = 0:0:01:13 / Tue Apr 16 16:55:45 2019
GPGPU-Sim PTX: 2300000 instructions simulated : ctaid=(5,0,0) tid=(31,0,0)
GPGPU-Sim uArch: cycles simulated: 113000  inst.: 2241472 (ipc=19.8) sim_rate=30290 (inst/sec) elapsed = 0:0:01:14 / Tue Apr 16 16:55:46 2019
GPGPU-Sim uArch: cycles simulated: 114500  inst.: 2262272 (ipc=19.8) sim_rate=30163 (inst/sec) elapsed = 0:0:01:15 / Tue Apr 16 16:55:47 2019
GPGPU-Sim uArch: cycles simulated: 115500  inst.: 2275040 (ipc=19.7) sim_rate=29934 (inst/sec) elapsed = 0:0:01:16 / Tue Apr 16 16:55:48 2019
GPGPU-Sim uArch: cycles simulated: 117000  inst.: 2293600 (ipc=19.6) sim_rate=29787 (inst/sec) elapsed = 0:0:01:17 / Tue Apr 16 16:55:49 2019
GPGPU-Sim uArch: cycles simulated: 119000  inst.: 2322176 (ipc=19.5) sim_rate=29771 (inst/sec) elapsed = 0:0:01:18 / Tue Apr 16 16:55:50 2019
GPGPU-Sim PTX: 2400000 instructions simulated : ctaid=(4,0,0) tid=(95,0,0)
GPGPU-Sim uArch: cycles simulated: 120500  inst.: 2339456 (ipc=19.4) sim_rate=29613 (inst/sec) elapsed = 0:0:01:19 / Tue Apr 16 16:55:51 2019
GPGPU-Sim uArch: cycles simulated: 122500  inst.: 2365408 (ipc=19.3) sim_rate=29567 (inst/sec) elapsed = 0:0:01:20 / Tue Apr 16 16:55:52 2019
GPGPU-Sim uArch: cycles simulated: 124000  inst.: 2383136 (ipc=19.2) sim_rate=29421 (inst/sec) elapsed = 0:0:01:21 / Tue Apr 16 16:55:53 2019
GPGPU-Sim uArch: cycles simulated: 125500  inst.: 2404672 (ipc=19.2) sim_rate=29325 (inst/sec) elapsed = 0:0:01:22 / Tue Apr 16 16:55:54 2019
GPGPU-Sim uArch: cycles simulated: 127000  inst.: 2425984 (ipc=19.1) sim_rate=29228 (inst/sec) elapsed = 0:0:01:23 / Tue Apr 16 16:55:55 2019
GPGPU-Sim PTX: 2500000 instructions simulated : ctaid=(0,1,0) tid=(159,0,0)
GPGPU-Sim uArch: cycles simulated: 128000  inst.: 2436640 (ipc=19.0) sim_rate=29007 (inst/sec) elapsed = 0:0:01:24 / Tue Apr 16 16:55:56 2019
GPGPU-Sim uArch: cycles simulated: 129500  inst.: 2458880 (ipc=19.0) sim_rate=28928 (inst/sec) elapsed = 0:0:01:25 / Tue Apr 16 16:55:57 2019
GPGPU-Sim uArch: cycles simulated: 130500  inst.: 2471904 (ipc=18.9) sim_rate=28743 (inst/sec) elapsed = 0:0:01:26 / Tue Apr 16 16:55:58 2019
GPGPU-Sim uArch: cycles simulated: 132000  inst.: 2492064 (ipc=18.9) sim_rate=28644 (inst/sec) elapsed = 0:0:01:27 / Tue Apr 16 16:55:59 2019
GPGPU-Sim uArch: cycles simulated: 134000  inst.: 2515680 (ipc=18.8) sim_rate=28587 (inst/sec) elapsed = 0:0:01:28 / Tue Apr 16 16:56:00 2019
GPGPU-Sim PTX: 2600000 instructions simulated : ctaid=(5,0,0) tid=(31,0,0)
GPGPU-Sim uArch: cycles simulated: 135500  inst.: 2536032 (ipc=18.7) sim_rate=28494 (inst/sec) elapsed = 0:0:01:29 / Tue Apr 16 16:56:01 2019
GPGPU-Sim uArch: cycles simulated: 137500  inst.: 2561280 (ipc=18.6) sim_rate=28458 (inst/sec) elapsed = 0:0:01:30 / Tue Apr 16 16:56:02 2019
GPGPU-Sim uArch: cycles simulated: 139000  inst.: 2581344 (ipc=18.6) sim_rate=28366 (inst/sec) elapsed = 0:0:01:31 / Tue Apr 16 16:56:03 2019
GPGPU-Sim uArch: cycles simulated: 140500  inst.: 2600576 (ipc=18.5) sim_rate=28267 (inst/sec) elapsed = 0:0:01:32 / Tue Apr 16 16:56:04 2019
GPGPU-Sim uArch: cycles simulated: 142500  inst.: 2627520 (ipc=18.4) sim_rate=28252 (inst/sec) elapsed = 0:0:01:33 / Tue Apr 16 16:56:05 2019
GPGPU-Sim PTX: 2700000 instructions simulated : ctaid=(10,1,0) tid=(95,0,0)
GPGPU-Sim uArch: cycles simulated: 144000  inst.: 2646272 (ipc=18.4) sim_rate=28151 (inst/sec) elapsed = 0:0:01:34 / Tue Apr 16 16:56:06 2019
GPGPU-Sim uArch: cycles simulated: 145500  inst.: 2663584 (ipc=18.3) sim_rate=28037 (inst/sec) elapsed = 0:0:01:35 / Tue Apr 16 16:56:07 2019
GPGPU-Sim uArch: cycles simulated: 147500  inst.: 2689696 (ipc=18.2) sim_rate=28017 (inst/sec) elapsed = 0:0:01:36 / Tue Apr 16 16:56:08 2019
GPGPU-Sim uArch: cycles simulated: 149000  inst.: 2707136 (ipc=18.2) sim_rate=27908 (inst/sec) elapsed = 0:0:01:37 / Tue Apr 16 16:56:09 2019
GPGPU-Sim uArch: cycles simulated: 150500  inst.: 2727392 (ipc=18.1) sim_rate=27830 (inst/sec) elapsed = 0:0:01:38 / Tue Apr 16 16:56:10 2019
GPGPU-Sim PTX: 2800000 instructions simulated : ctaid=(2,1,0) tid=(95,0,0)
GPGPU-Sim uArch: cycles simulated: 152500  inst.: 2754944 (ipc=18.1) sim_rate=27827 (inst/sec) elapsed = 0:0:01:39 / Tue Apr 16 16:56:11 2019
GPGPU-Sim uArch: cycles simulated: 154000  inst.: 2774464 (ipc=18.0) sim_rate=27744 (inst/sec) elapsed = 0:0:01:40 / Tue Apr 16 16:56:12 2019
GPGPU-Sim uArch: cycles simulated: 156000  inst.: 2799680 (ipc=17.9) sim_rate=27719 (inst/sec) elapsed = 0:0:01:41 / Tue Apr 16 16:56:13 2019
GPGPU-Sim uArch: cycles simulated: 157500  inst.: 2819328 (ipc=17.9) sim_rate=27640 (inst/sec) elapsed = 0:0:01:42 / Tue Apr 16 16:56:14 2019
GPGPU-Sim PTX: 2900000 instructions simulated : ctaid=(3,0,0) tid=(127,0,0)
GPGPU-Sim uArch: cycles simulated: 159500  inst.: 2845920 (ipc=17.8) sim_rate=27630 (inst/sec) elapsed = 0:0:01:43 / Tue Apr 16 16:56:15 2019
GPGPU-Sim uArch: cycles simulated: 161500  inst.: 2867072 (ipc=17.8) sim_rate=27568 (inst/sec) elapsed = 0:0:01:44 / Tue Apr 16 16:56:16 2019
GPGPU-Sim uArch: cycles simulated: 163000  inst.: 2886496 (ipc=17.7) sim_rate=27490 (inst/sec) elapsed = 0:0:01:45 / Tue Apr 16 16:56:17 2019
GPGPU-Sim uArch: cycles simulated: 165000  inst.: 2913984 (ipc=17.7) sim_rate=27490 (inst/sec) elapsed = 0:0:01:46 / Tue Apr 16 16:56:18 2019
GPGPU-Sim PTX: 3000000 instructions simulated : ctaid=(0,0,0) tid=(223,0,0)
GPGPU-Sim uArch: cycles simulated: 166500  inst.: 2930720 (ipc=17.6) sim_rate=27389 (inst/sec) elapsed = 0:0:01:47 / Tue Apr 16 16:56:19 2019
GPGPU-Sim uArch: cycles simulated: 168500  inst.: 2955072 (ipc=17.5) sim_rate=27361 (inst/sec) elapsed = 0:0:01:48 / Tue Apr 16 16:56:20 2019
GPGPU-Sim uArch: cycles simulated: 170000  inst.: 2975872 (ipc=17.5) sim_rate=27301 (inst/sec) elapsed = 0:0:01:49 / Tue Apr 16 16:56:21 2019
GPGPU-Sim uArch: cycles simulated: 172000  inst.: 2999968 (ipc=17.4) sim_rate=27272 (inst/sec) elapsed = 0:0:01:50 / Tue Apr 16 16:56:22 2019
GPGPU-Sim uArch: cycles simulated: 173500  inst.: 3021344 (ipc=17.4) sim_rate=27219 (inst/sec) elapsed = 0:0:01:51 / Tue Apr 16 16:56:23 2019
GPGPU-Sim PTX: 3100000 instructions simulated : ctaid=(9,0,0) tid=(159,0,0)
GPGPU-Sim uArch: cycles simulated: 175500  inst.: 3044736 (ipc=17.3) sim_rate=27185 (inst/sec) elapsed = 0:0:01:52 / Tue Apr 16 16:56:24 2019
GPGPU-Sim uArch: cycles simulated: 177500  inst.: 3070496 (ipc=17.3) sim_rate=27172 (inst/sec) elapsed = 0:0:01:53 / Tue Apr 16 16:56:25 2019
GPGPU-Sim uArch: cycles simulated: 179000  inst.: 3089856 (ipc=17.3) sim_rate=27104 (inst/sec) elapsed = 0:0:01:54 / Tue Apr 16 16:56:26 2019
GPGPU-Sim uArch: cycles simulated: 181000  inst.: 3112800 (ipc=17.2) sim_rate=27067 (inst/sec) elapsed = 0:0:01:55 / Tue Apr 16 16:56:27 2019
GPGPU-Sim PTX: 3200000 instructions simulated : ctaid=(6,1,0) tid=(31,0,0)
GPGPU-Sim uArch: cycles simulated: 182500  inst.: 3132864 (ipc=17.2) sim_rate=27007 (inst/sec) elapsed = 0:0:01:56 / Tue Apr 16 16:56:28 2019
GPGPU-Sim uArch: cycles simulated: 184500  inst.: 3157760 (ipc=17.1) sim_rate=26989 (inst/sec) elapsed = 0:0:01:57 / Tue Apr 16 16:56:29 2019
GPGPU-Sim uArch: cycles simulated: 186000  inst.: 3180128 (ipc=17.1) sim_rate=26950 (inst/sec) elapsed = 0:0:01:58 / Tue Apr 16 16:56:30 2019
GPGPU-Sim uArch: cycles simulated: 188000  inst.: 3206080 (ipc=17.1) sim_rate=26941 (inst/sec) elapsed = 0:0:01:59 / Tue Apr 16 16:56:31 2019
GPGPU-Sim uArch: cycles simulated: 189500  inst.: 3225696 (ipc=17.0) sim_rate=26880 (inst/sec) elapsed = 0:0:02:00 / Tue Apr 16 16:56:32 2019
GPGPU-Sim PTX: 3300000 instructions simulated : ctaid=(5,0,0) tid=(31,0,0)
GPGPU-Sim uArch: cycles simulated: 191500  inst.: 3251328 (ipc=17.0) sim_rate=26870 (inst/sec) elapsed = 0:0:02:01 / Tue Apr 16 16:56:33 2019
GPGPU-Sim uArch: cycles simulated: 193500  inst.: 3274944 (ipc=16.9) sim_rate=26843 (inst/sec) elapsed = 0:0:02:02 / Tue Apr 16 16:56:34 2019
GPGPU-Sim uArch: cycles simulated: 195000  inst.: 3295968 (ipc=16.9) sim_rate=26796 (inst/sec) elapsed = 0:0:02:03 / Tue Apr 16 16:56:35 2019
GPGPU-Sim uArch: cycles simulated: 197000  inst.: 3322624 (ipc=16.9) sim_rate=26795 (inst/sec) elapsed = 0:0:02:04 / Tue Apr 16 16:56:36 2019
GPGPU-Sim PTX: 3400000 instructions simulated : ctaid=(2,0,0) tid=(95,0,0)
GPGPU-Sim uArch: cycles simulated: 198500  inst.: 3344032 (ipc=16.8) sim_rate=26752 (inst/sec) elapsed = 0:0:02:05 / Tue Apr 16 16:56:37 2019
GPGPU-Sim uArch: cycles simulated: 200000  inst.: 3361888 (ipc=16.8) sim_rate=26681 (inst/sec) elapsed = 0:0:02:06 / Tue Apr 16 16:56:38 2019
GPGPU-Sim uArch: cycles simulated: 202000  inst.: 3387840 (ipc=16.8) sim_rate=26675 (inst/sec) elapsed = 0:0:02:07 / Tue Apr 16 16:56:39 2019
GPGPU-Sim uArch: cycles simulated: 203500  inst.: 3412128 (ipc=16.8) sim_rate=26657 (inst/sec) elapsed = 0:0:02:08 / Tue Apr 16 16:56:40 2019
GPGPU-Sim PTX: 3500000 instructions simulated : ctaid=(1,0,0) tid=(127,0,0)
GPGPU-Sim uArch: cycles simulated: 205500  inst.: 3434624 (ipc=16.7) sim_rate=26624 (inst/sec) elapsed = 0:0:02:09 / Tue Apr 16 16:56:41 2019
GPGPU-Sim uArch: cycles simulated: 207000  inst.: 3452800 (ipc=16.7) sim_rate=26560 (inst/sec) elapsed = 0:0:02:10 / Tue Apr 16 16:56:42 2019
GPGPU-Sim uArch: cycles simulated: 208500  inst.: 3470624 (ipc=16.6) sim_rate=26493 (inst/sec) elapsed = 0:0:02:11 / Tue Apr 16 16:56:43 2019
GPGPU-Sim uArch: cycles simulated: 210500  inst.: 3495488 (ipc=16.6) sim_rate=26480 (inst/sec) elapsed = 0:0:02:12 / Tue Apr 16 16:56:44 2019
GPGPU-Sim uArch: cycles simulated: 212000  inst.: 3515968 (ipc=16.6) sim_rate=26435 (inst/sec) elapsed = 0:0:02:13 / Tue Apr 16 16:56:45 2019
GPGPU-Sim uArch: cycles simulated: 213000  inst.: 3526560 (ipc=16.6) sim_rate=26317 (inst/sec) elapsed = 0:0:02:14 / Tue Apr 16 16:56:46 2019
GPGPU-Sim PTX: 3600000 instructions simulated : ctaid=(2,0,0) tid=(31,0,0)
GPGPU-Sim uArch: cycles simulated: 214000  inst.: 3542816 (ipc=16.6) sim_rate=26243 (inst/sec) elapsed = 0:0:02:15 / Tue Apr 16 16:56:47 2019
GPGPU-Sim uArch: cycles simulated: 215500  inst.: 3563584 (ipc=16.5) sim_rate=26202 (inst/sec) elapsed = 0:0:02:16 / Tue Apr 16 16:56:48 2019
GPGPU-Sim uArch: cycles simulated: 217000  inst.: 3580160 (ipc=16.5) sim_rate=26132 (inst/sec) elapsed = 0:0:02:17 / Tue Apr 16 16:56:49 2019
GPGPU-Sim uArch: cycles simulated: 218500  inst.: 3601536 (ipc=16.5) sim_rate=26098 (inst/sec) elapsed = 0:0:02:18 / Tue Apr 16 16:56:50 2019
GPGPU-Sim uArch: cycles simulated: 219500  inst.: 3616416 (ipc=16.5) sim_rate=26017 (inst/sec) elapsed = 0:0:02:19 / Tue Apr 16 16:56:51 2019
GPGPU-Sim PTX: 3700000 instructions simulated : ctaid=(1,1,0) tid=(223,0,0)
GPGPU-Sim uArch: cycles simulated: 221000  inst.: 3631904 (ipc=16.4) sim_rate=25942 (inst/sec) elapsed = 0:0:02:20 / Tue Apr 16 16:56:52 2019
GPGPU-Sim uArch: cycles simulated: 223000  inst.: 3661536 (ipc=16.4) sim_rate=25968 (inst/sec) elapsed = 0:0:02:21 / Tue Apr 16 16:56:53 2019
GPGPU-Sim uArch: cycles simulated: 224000  inst.: 3676768 (ipc=16.4) sim_rate=25892 (inst/sec) elapsed = 0:0:02:22 / Tue Apr 16 16:56:54 2019
GPGPU-Sim uArch: cycles simulated: 226000  inst.: 3699776 (ipc=16.4) sim_rate=25872 (inst/sec) elapsed = 0:0:02:23 / Tue Apr 16 16:56:55 2019
GPGPU-Sim uArch: cycles simulated: 227500  inst.: 3718720 (ipc=16.3) sim_rate=25824 (inst/sec) elapsed = 0:0:02:24 / Tue Apr 16 16:56:56 2019
GPGPU-Sim PTX: 3800000 instructions simulated : ctaid=(2,1,0) tid=(159,0,0)
GPGPU-Sim uArch: cycles simulated: 229000  inst.: 3734976 (ipc=16.3) sim_rate=25758 (inst/sec) elapsed = 0:0:02:25 / Tue Apr 16 16:56:57 2019
GPGPU-Sim uArch: cycles simulated: 230500  inst.: 3753600 (ipc=16.3) sim_rate=25709 (inst/sec) elapsed = 0:0:02:26 / Tue Apr 16 16:56:58 2019
GPGPU-Sim uArch: cycles simulated: 232000  inst.: 3771648 (ipc=16.3) sim_rate=25657 (inst/sec) elapsed = 0:0:02:27 / Tue Apr 16 16:56:59 2019
GPGPU-Sim uArch: cycles simulated: 233500  inst.: 3790464 (ipc=16.2) sim_rate=25611 (inst/sec) elapsed = 0:0:02:28 / Tue Apr 16 16:57:00 2019
GPGPU-Sim uArch: cycles simulated: 235000  inst.: 3812320 (ipc=16.2) sim_rate=25586 (inst/sec) elapsed = 0:0:02:29 / Tue Apr 16 16:57:01 2019
GPGPU-Sim uArch: cycles simulated: 236000  inst.: 3824768 (ipc=16.2) sim_rate=25498 (inst/sec) elapsed = 0:0:02:30 / Tue Apr 16 16:57:02 2019
GPGPU-Sim PTX: 3900000 instructions simulated : ctaid=(1,0,0) tid=(31,0,0)
GPGPU-Sim uArch: cycles simulated: 237500  inst.: 3844416 (ipc=16.2) sim_rate=25459 (inst/sec) elapsed = 0:0:02:31 / Tue Apr 16 16:57:03 2019
GPGPU-Sim uArch: cycles simulated: 239000  inst.: 3864832 (ipc=16.2) sim_rate=25426 (inst/sec) elapsed = 0:0:02:32 / Tue Apr 16 16:57:04 2019
GPGPU-Sim uArch: cycles simulated: 241000  inst.: 3888928 (ipc=16.1) sim_rate=25417 (inst/sec) elapsed = 0:0:02:33 / Tue Apr 16 16:57:05 2019
GPGPU-Sim uArch: cycles simulated: 242500  inst.: 3910144 (ipc=16.1) sim_rate=25390 (inst/sec) elapsed = 0:0:02:34 / Tue Apr 16 16:57:06 2019
GPGPU-Sim PTX: 4000000 instructions simulated : ctaid=(1,1,0) tid=(223,0,0)
GPGPU-Sim uArch: cycles simulated: 244000  inst.: 3928928 (ipc=16.1) sim_rate=25347 (inst/sec) elapsed = 0:0:02:35 / Tue Apr 16 16:57:07 2019
GPGPU-Sim uArch: cycles simulated: 246000  inst.: 3953664 (ipc=16.1) sim_rate=25344 (inst/sec) elapsed = 0:0:02:36 / Tue Apr 16 16:57:08 2019
GPGPU-Sim uArch: cycles simulated: 247500  inst.: 3973120 (ipc=16.1) sim_rate=25306 (inst/sec) elapsed = 0:0:02:37 / Tue Apr 16 16:57:09 2019
GPGPU-Sim uArch: cycles simulated: 249000  inst.: 3993504 (ipc=16.0) sim_rate=25275 (inst/sec) elapsed = 0:0:02:38 / Tue Apr 16 16:57:10 2019
GPGPU-Sim uArch: cycles simulated: 250500  inst.: 4013568 (ipc=16.0) sim_rate=25242 (inst/sec) elapsed = 0:0:02:39 / Tue Apr 16 16:57:11 2019
GPGPU-Sim uArch: cycles simulated: 251500  inst.: 4027712 (ipc=16.0) sim_rate=25173 (inst/sec) elapsed = 0:0:02:40 / Tue Apr 16 16:57:12 2019
GPGPU-Sim PTX: 4100000 instructions simulated : ctaid=(0,0,0) tid=(31,0,0)
GPGPU-Sim uArch: cycles simulated: 253000  inst.: 4049856 (ipc=16.0) sim_rate=25154 (inst/sec) elapsed = 0:0:02:41 / Tue Apr 16 16:57:13 2019
GPGPU-Sim uArch: cycles simulated: 254500  inst.: 4068544 (ipc=16.0) sim_rate=25114 (inst/sec) elapsed = 0:0:02:42 / Tue Apr 16 16:57:14 2019
GPGPU-Sim uArch: cycles simulated: 256000  inst.: 4086816 (ipc=16.0) sim_rate=25072 (inst/sec) elapsed = 0:0:02:43 / Tue Apr 16 16:57:15 2019
GPGPU-Sim uArch: cycles simulated: 258000  inst.: 4112672 (ipc=15.9) sim_rate=25077 (inst/sec) elapsed = 0:0:02:44 / Tue Apr 16 16:57:16 2019
GPGPU-Sim PTX: 4200000 instructions simulated : ctaid=(1,1,0) tid=(31,0,0)
GPGPU-Sim uArch: cycles simulated: 259500  inst.: 4131168 (ipc=15.9) sim_rate=25037 (inst/sec) elapsed = 0:0:02:45 / Tue Apr 16 16:57:17 2019
GPGPU-Sim uArch: cycles simulated: 261500  inst.: 4156896 (ipc=15.9) sim_rate=25041 (inst/sec) elapsed = 0:0:02:46 / Tue Apr 16 16:57:18 2019
GPGPU-Sim uArch: cycles simulated: 262500  inst.: 4172448 (ipc=15.9) sim_rate=24984 (inst/sec) elapsed = 0:0:02:47 / Tue Apr 16 16:57:19 2019
GPGPU-Sim uArch: cycles simulated: 264500  inst.: 4197280 (ipc=15.9) sim_rate=24983 (inst/sec) elapsed = 0:0:02:48 / Tue Apr 16 16:57:20 2019
GPGPU-Sim uArch: cycles simulated: 265500  inst.: 4209536 (ipc=15.9) sim_rate=24908 (inst/sec) elapsed = 0:0:02:49 / Tue Apr 16 16:57:21 2019
GPGPU-Sim uArch: cycles simulated: 266500  inst.: 4220480 (ipc=15.8) sim_rate=24826 (inst/sec) elapsed = 0:0:02:50 / Tue Apr 16 16:57:22 2019
GPGPU-Sim PTX: 4300000 instructions simulated : ctaid=(2,0,0) tid=(159,0,0)
GPGPU-Sim uArch: cycles simulated: 267500  inst.: 4236352 (ipc=15.8) sim_rate=24773 (inst/sec) elapsed = 0:0:02:51 / Tue Apr 16 16:57:23 2019
GPGPU-Sim uArch: cycles simulated: 269000  inst.: 4253472 (ipc=15.8) sim_rate=24729 (inst/sec) elapsed = 0:0:02:52 / Tue Apr 16 16:57:24 2019
GPGPU-Sim uArch: cycles simulated: 271000  inst.: 4278496 (ipc=15.8) sim_rate=24731 (inst/sec) elapsed = 0:0:02:53 / Tue Apr 16 16:57:25 2019
GPGPU-Sim uArch: cycles simulated: 272500  inst.: 4300224 (ipc=15.8) sim_rate=24713 (inst/sec) elapsed = 0:0:02:54 / Tue Apr 16 16:57:26 2019
GPGPU-Sim uArch: cycles simulated: 274500  inst.: 4323296 (ipc=15.7) sim_rate=24704 (inst/sec) elapsed = 0:0:02:55 / Tue Apr 16 16:57:27 2019
GPGPU-Sim PTX: 4400000 instructions simulated : ctaid=(9,1,0) tid=(159,0,0)
GPGPU-Sim uArch: cycles simulated: 276000  inst.: 4348864 (ipc=15.8) sim_rate=24709 (inst/sec) elapsed = 0:0:02:56 / Tue Apr 16 16:57:28 2019
GPGPU-Sim uArch: cycles simulated: 277500  inst.: 4366560 (ipc=15.7) sim_rate=24669 (inst/sec) elapsed = 0:0:02:57 / Tue Apr 16 16:57:29 2019
GPGPU-Sim uArch: cycles simulated: 279500  inst.: 4394176 (ipc=15.7) sim_rate=24686 (inst/sec) elapsed = 0:0:02:58 / Tue Apr 16 16:57:30 2019
GPGPU-Sim uArch: cycles simulated: 281000  inst.: 4414272 (ipc=15.7) sim_rate=24660 (inst/sec) elapsed = 0:0:02:59 / Tue Apr 16 16:57:31 2019
GPGPU-Sim PTX: 4500000 instructions simulated : ctaid=(2,0,0) tid=(31,0,0)
GPGPU-Sim uArch: cycles simulated: 283000  inst.: 4437376 (ipc=15.7) sim_rate=24652 (inst/sec) elapsed = 0:0:03:00 / Tue Apr 16 16:57:32 2019
GPGPU-Sim uArch: cycles simulated: 284500  inst.: 4456576 (ipc=15.7) sim_rate=24621 (inst/sec) elapsed = 0:0:03:01 / Tue Apr 16 16:57:33 2019
GPGPU-Sim uArch: cycles simulated: 286000  inst.: 4476992 (ipc=15.7) sim_rate=24598 (inst/sec) elapsed = 0:0:03:02 / Tue Apr 16 16:57:34 2019
GPGPU-Sim uArch: cycles simulated: 287500  inst.: 4496032 (ipc=15.6) sim_rate=24568 (inst/sec) elapsed = 0:0:03:03 / Tue Apr 16 16:57:35 2019
GPGPU-Sim uArch: cycles simulated: 289500  inst.: 4519616 (ipc=15.6) sim_rate=24563 (inst/sec) elapsed = 0:0:03:04 / Tue Apr 16 16:57:36 2019
GPGPU-Sim PTX: 4600000 instructions simulated : ctaid=(4,1,0) tid=(95,0,0)
GPGPU-Sim uArch: cycles simulated: 291000  inst.: 4537536 (ipc=15.6) sim_rate=24527 (inst/sec) elapsed = 0:0:03:05 / Tue Apr 16 16:57:37 2019
GPGPU-Sim uArch: cycles simulated: 293000  inst.: 4568352 (ipc=15.6) sim_rate=24561 (inst/sec) elapsed = 0:0:03:06 / Tue Apr 16 16:57:38 2019
GPGPU-Sim uArch: cycles simulated: 294500  inst.: 4588352 (ipc=15.6) sim_rate=24536 (inst/sec) elapsed = 0:0:03:07 / Tue Apr 16 16:57:39 2019
GPGPU-Sim uArch: cycles simulated: 296000  inst.: 4607168 (ipc=15.6) sim_rate=24506 (inst/sec) elapsed = 0:0:03:08 / Tue Apr 16 16:57:40 2019
GPGPU-Sim PTX: 4700000 instructions simulated : ctaid=(3,1,0) tid=(159,0,0)
GPGPU-Sim uArch: cycles simulated: 298000  inst.: 4633344 (ipc=15.5) sim_rate=24515 (inst/sec) elapsed = 0:0:03:09 / Tue Apr 16 16:57:41 2019
GPGPU-Sim uArch: cycles simulated: 299500  inst.: 4650112 (ipc=15.5) sim_rate=24474 (inst/sec) elapsed = 0:0:03:10 / Tue Apr 16 16:57:42 2019
GPGPU-Sim uArch: cycles simulated: 301000  inst.: 4671616 (ipc=15.5) sim_rate=24458 (inst/sec) elapsed = 0:0:03:11 / Tue Apr 16 16:57:43 2019
GPGPU-Sim uArch: cycles simulated: 303000  inst.: 4701440 (ipc=15.5) sim_rate=24486 (inst/sec) elapsed = 0:0:03:12 / Tue Apr 16 16:57:44 2019
GPGPU-Sim uArch: cycles simulated: 304500  inst.: 4720576 (ipc=15.5) sim_rate=24458 (inst/sec) elapsed = 0:0:03:13 / Tue Apr 16 16:57:45 2019
GPGPU-Sim PTX: 4800000 instructions simulated : ctaid=(9,0,0) tid=(95,0,0)
GPGPU-Sim uArch: cycles simulated: 306500  inst.: 4750944 (ipc=15.5) sim_rate=24489 (inst/sec) elapsed = 0:0:03:14 / Tue Apr 16 16:57:46 2019
GPGPU-Sim uArch: cycles simulated: 308000  inst.: 4767360 (ipc=15.5) sim_rate=24448 (inst/sec) elapsed = 0:0:03:15 / Tue Apr 16 16:57:47 2019
GPGPU-Sim uArch: cycles simulated: 310000  inst.: 4794080 (ipc=15.5) sim_rate=24459 (inst/sec) elapsed = 0:0:03:16 / Tue Apr 16 16:57:48 2019
GPGPU-Sim uArch: cycles simulated: 311500  inst.: 4813600 (ipc=15.5) sim_rate=24434 (inst/sec) elapsed = 0:0:03:17 / Tue Apr 16 16:57:49 2019
GPGPU-Sim PTX: 4900000 instructions simulated : ctaid=(2,1,0) tid=(95,0,0)
GPGPU-Sim uArch: cycles simulated: 313500  inst.: 4839040 (ipc=15.4) sim_rate=24439 (inst/sec) elapsed = 0:0:03:18 / Tue Apr 16 16:57:50 2019
GPGPU-Sim uArch: cycles simulated: 315000  inst.: 4857184 (ipc=15.4) sim_rate=24407 (inst/sec) elapsed = 0:0:03:19 / Tue Apr 16 16:57:51 2019
GPGPU-Sim uArch: cycles simulated: 317000  inst.: 4883264 (ipc=15.4) sim_rate=24416 (inst/sec) elapsed = 0:0:03:20 / Tue Apr 16 16:57:52 2019
GPGPU-Sim uArch: cycles simulated: 318500  inst.: 4906144 (ipc=15.4) sim_rate=24408 (inst/sec) elapsed = 0:0:03:21 / Tue Apr 16 16:57:53 2019
GPGPU-Sim PTX: 5000000 instructions simulated : ctaid=(7,0,0) tid=(95,0,0)
GPGPU-Sim uArch: cycles simulated: 320500  inst.: 4931968 (ipc=15.4) sim_rate=24415 (inst/sec) elapsed = 0:0:03:22 / Tue Apr 16 16:57:54 2019
GPGPU-Sim uArch: cycles simulated: 322000  inst.: 4954048 (ipc=15.4) sim_rate=24404 (inst/sec) elapsed = 0:0:03:23 / Tue Apr 16 16:57:55 2019
GPGPU-Sim uArch: cycles simulated: 324000  inst.: 4975456 (ipc=15.4) sim_rate=24389 (inst/sec) elapsed = 0:0:03:24 / Tue Apr 16 16:57:56 2019
GPGPU-Sim uArch: cycles simulated: 325500  inst.: 4999136 (ipc=15.4) sim_rate=24386 (inst/sec) elapsed = 0:0:03:25 / Tue Apr 16 16:57:57 2019
GPGPU-Sim uArch: cycles simulated: 327500  inst.: 5022112 (ipc=15.3) sim_rate=24379 (inst/sec) elapsed = 0:0:03:26 / Tue Apr 16 16:57:58 2019
GPGPU-Sim PTX: 5100000 instructions simulated : ctaid=(9,0,0) tid=(95,0,0)
GPGPU-Sim uArch: cycles simulated: 329000  inst.: 5040224 (ipc=15.3) sim_rate=24348 (inst/sec) elapsed = 0:0:03:27 / Tue Apr 16 16:57:59 2019
GPGPU-Sim uArch: cycles simulated: 331000  inst.: 5071712 (ipc=15.3) sim_rate=24383 (inst/sec) elapsed = 0:0:03:28 / Tue Apr 16 16:58:00 2019
GPGPU-Sim uArch: cycles simulated: 332500  inst.: 5089216 (ipc=15.3) sim_rate=24350 (inst/sec) elapsed = 0:0:03:29 / Tue Apr 16 16:58:01 2019
GPGPU-Sim uArch: cycles simulated: 334500  inst.: 5113312 (ipc=15.3) sim_rate=24349 (inst/sec) elapsed = 0:0:03:30 / Tue Apr 16 16:58:02 2019
GPGPU-Sim PTX: 5200000 instructions simulated : ctaid=(0,0,0) tid=(159,0,0)
GPGPU-Sim uArch: cycles simulated: 336000  inst.: 5134144 (ipc=15.3) sim_rate=24332 (inst/sec) elapsed = 0:0:03:31 / Tue Apr 16 16:58:03 2019
GPGPU-Sim uArch: cycles simulated: 338000  inst.: 5160288 (ipc=15.3) sim_rate=24340 (inst/sec) elapsed = 0:0:03:32 / Tue Apr 16 16:58:04 2019
GPGPU-Sim uArch: cycles simulated: 339500  inst.: 5175264 (ipc=15.2) sim_rate=24297 (inst/sec) elapsed = 0:0:03:33 / Tue Apr 16 16:58:05 2019
GPGPU-Sim uArch: cycles simulated: 341500  inst.: 5205632 (ipc=15.2) sim_rate=24325 (inst/sec) elapsed = 0:0:03:34 / Tue Apr 16 16:58:06 2019
GPGPU-Sim uArch: cycles simulated: 343000  inst.: 5223104 (ipc=15.2) sim_rate=24293 (inst/sec) elapsed = 0:0:03:35 / Tue Apr 16 16:58:07 2019
GPGPU-Sim PTX: 5300000 instructions simulated : ctaid=(9,0,0) tid=(159,0,0)
GPGPU-Sim uArch: cycles simulated: 345000  inst.: 5250432 (ipc=15.2) sim_rate=24307 (inst/sec) elapsed = 0:0:03:36 / Tue Apr 16 16:58:08 2019
GPGPU-Sim uArch: cycles simulated: 346500  inst.: 5266656 (ipc=15.2) sim_rate=24270 (inst/sec) elapsed = 0:0:03:37 / Tue Apr 16 16:58:09 2019
GPGPU-Sim uArch: cycles simulated: 348500  inst.: 5293920 (ipc=15.2) sim_rate=24284 (inst/sec) elapsed = 0:0:03:38 / Tue Apr 16 16:58:10 2019
GPGPU-Sim uArch: cycles simulated: 350000  inst.: 5311136 (ipc=15.2) sim_rate=24251 (inst/sec) elapsed = 0:0:03:39 / Tue Apr 16 16:58:11 2019
GPGPU-Sim PTX: 5400000 instructions simulated : ctaid=(10,0,0) tid=(31,0,0)
GPGPU-Sim uArch: cycles simulated: 352000  inst.: 5337792 (ipc=15.2) sim_rate=24262 (inst/sec) elapsed = 0:0:03:40 / Tue Apr 16 16:58:12 2019
GPGPU-Sim uArch: cycles simulated: 353500  inst.: 5361984 (ipc=15.2) sim_rate=24262 (inst/sec) elapsed = 0:0:03:41 / Tue Apr 16 16:58:13 2019
GPGPU-Sim uArch: cycles simulated: 355500  inst.: 5385824 (ipc=15.1) sim_rate=24260 (inst/sec) elapsed = 0:0:03:42 / Tue Apr 16 16:58:14 2019
GPGPU-Sim uArch: cycles simulated: 357000  inst.: 5405760 (ipc=15.1) sim_rate=24241 (inst/sec) elapsed = 0:0:03:43 / Tue Apr 16 16:58:15 2019
GPGPU-Sim PTX: 5500000 instructions simulated : ctaid=(3,0,0) tid=(127,0,0)
GPGPU-Sim uArch: cycles simulated: 359000  inst.: 5430720 (ipc=15.1) sim_rate=24244 (inst/sec) elapsed = 0:0:03:44 / Tue Apr 16 16:58:16 2019
GPGPU-Sim uArch: cycles simulated: 360500  inst.: 5447616 (ipc=15.1) sim_rate=24211 (inst/sec) elapsed = 0:0:03:45 / Tue Apr 16 16:58:17 2019
GPGPU-Sim uArch: cycles simulated: 362500  inst.: 5473504 (ipc=15.1) sim_rate=24219 (inst/sec) elapsed = 0:0:03:46 / Tue Apr 16 16:58:18 2019
GPGPU-Sim uArch: cycles simulated: 364500  inst.: 5494784 (ipc=15.1) sim_rate=24206 (inst/sec) elapsed = 0:0:03:47 / Tue Apr 16 16:58:19 2019
GPGPU-Sim uArch: cycles simulated: 366000  inst.: 5513984 (ipc=15.1) sim_rate=24184 (inst/sec) elapsed = 0:0:03:48 / Tue Apr 16 16:58:20 2019
GPGPU-Sim PTX: 5600000 instructions simulated : ctaid=(2,1,0) tid=(223,0,0)
GPGPU-Sim uArch: cycles simulated: 368000  inst.: 5542336 (ipc=15.1) sim_rate=24202 (inst/sec) elapsed = 0:0:03:49 / Tue Apr 16 16:58:21 2019
GPGPU-Sim uArch: cycles simulated: 369500  inst.: 5557024 (ipc=15.0) sim_rate=24160 (inst/sec) elapsed = 0:0:03:50 / Tue Apr 16 16:58:22 2019
GPGPU-Sim uArch: cycles simulated: 371500  inst.: 5584192 (ipc=15.0) sim_rate=24173 (inst/sec) elapsed = 0:0:03:51 / Tue Apr 16 16:58:23 2019
GPGPU-Sim uArch: cycles simulated: 373000  inst.: 5603424 (ipc=15.0) sim_rate=24152 (inst/sec) elapsed = 0:0:03:52 / Tue Apr 16 16:58:24 2019
GPGPU-Sim PTX: 5700000 instructions simulated : ctaid=(0,2,0) tid=(95,0,0)
GPGPU-Sim uArch: cycles simulated: 375000  inst.: 5627872 (ipc=15.0) sim_rate=24153 (inst/sec) elapsed = 0:0:03:53 / Tue Apr 16 16:58:25 2019
GPGPU-Sim uArch: cycles simulated: 376500  inst.: 5646784 (ipc=15.0) sim_rate=24131 (inst/sec) elapsed = 0:0:03:54 / Tue Apr 16 16:58:26 2019
GPGPU-Sim uArch: cycles simulated: 378500  inst.: 5670048 (ipc=15.0) sim_rate=24127 (inst/sec) elapsed = 0:0:03:55 / Tue Apr 16 16:58:27 2019
GPGPU-Sim uArch: cycles simulated: 380500  inst.: 5698144 (ipc=15.0) sim_rate=24144 (inst/sec) elapsed = 0:0:03:56 / Tue Apr 16 16:58:28 2019
GPGPU-Sim uArch: cycles simulated: 382000  inst.: 5718176 (ipc=15.0) sim_rate=24127 (inst/sec) elapsed = 0:0:03:57 / Tue Apr 16 16:58:29 2019
GPGPU-Sim PTX: 5800000 instructions simulated : ctaid=(6,2,0) tid=(95,0,0)
GPGPU-Sim uArch: cycles simulated: 384000  inst.: 5744896 (ipc=15.0) sim_rate=24138 (inst/sec) elapsed = 0:0:03:58 / Tue Apr 16 16:58:30 2019
GPGPU-Sim uArch: cycles simulated: 385500  inst.: 5763072 (ipc=14.9) sim_rate=24113 (inst/sec) elapsed = 0:0:03:59 / Tue Apr 16 16:58:31 2019
GPGPU-Sim uArch: cycles simulated: 387500  inst.: 5788256 (ipc=14.9) sim_rate=24117 (inst/sec) elapsed = 0:0:04:00 / Tue Apr 16 16:58:32 2019
GPGPU-Sim uArch: cycles simulated: 389500  inst.: 5813952 (ipc=14.9) sim_rate=24124 (inst/sec) elapsed = 0:0:04:01 / Tue Apr 16 16:58:33 2019
GPGPU-Sim PTX: 5900000 instructions simulated : ctaid=(7,2,0) tid=(31,0,0)
GPGPU-Sim uArch: cycles simulated: 391000  inst.: 5834176 (ipc=14.9) sim_rate=24108 (inst/sec) elapsed = 0:0:04:02 / Tue Apr 16 16:58:34 2019
GPGPU-Sim uArch: cycles simulated: 393000  inst.: 5856896 (ipc=14.9) sim_rate=24102 (inst/sec) elapsed = 0:0:04:03 / Tue Apr 16 16:58:35 2019
GPGPU-Sim uArch: cycles simulated: 394500  inst.: 5877760 (ipc=14.9) sim_rate=24089 (inst/sec) elapsed = 0:0:04:04 / Tue Apr 16 16:58:36 2019
GPGPU-Sim uArch: cycles simulated: 396500  inst.: 5901312 (ipc=14.9) sim_rate=24086 (inst/sec) elapsed = 0:0:04:05 / Tue Apr 16 16:58:37 2019
GPGPU-Sim uArch: cycles simulated: 398000  inst.: 5920192 (ipc=14.9) sim_rate=24065 (inst/sec) elapsed = 0:0:04:06 / Tue Apr 16 16:58:38 2019
GPGPU-Sim PTX: 6000000 instructions simulated : ctaid=(4,1,0) tid=(31,0,0)
GPGPU-Sim uArch: cycles simulated: 400000  inst.: 5945088 (ipc=14.9) sim_rate=24069 (inst/sec) elapsed = 0:0:04:07 / Tue Apr 16 16:58:39 2019
GPGPU-Sim uArch: cycles simulated: 402000  inst.: 5973760 (ipc=14.9) sim_rate=24087 (inst/sec) elapsed = 0:0:04:08 / Tue Apr 16 16:58:40 2019
GPGPU-Sim uArch: cycles simulated: 403500  inst.: 5990752 (ipc=14.8) sim_rate=24059 (inst/sec) elapsed = 0:0:04:09 / Tue Apr 16 16:58:41 2019
GPGPU-Sim uArch: cycles simulated: 405500  inst.: 6018048 (ipc=14.8) sim_rate=24072 (inst/sec) elapsed = 0:0:04:10 / Tue Apr 16 16:58:42 2019
GPGPU-Sim PTX: 6100000 instructions simulated : ctaid=(2,1,0) tid=(95,0,0)
GPGPU-Sim uArch: cycles simulated: 407000  inst.: 6037408 (ipc=14.8) sim_rate=24053 (inst/sec) elapsed = 0:0:04:11 / Tue Apr 16 16:58:43 2019
GPGPU-Sim uArch: cycles simulated: 409000  inst.: 6061248 (ipc=14.8) sim_rate=24052 (inst/sec) elapsed = 0:0:04:12 / Tue Apr 16 16:58:44 2019
GPGPU-Sim uArch: cycles simulated: 411000  inst.: 6084640 (ipc=14.8) sim_rate=24049 (inst/sec) elapsed = 0:0:04:13 / Tue Apr 16 16:58:45 2019
GPGPU-Sim uArch: cycles simulated: 412500  inst.: 6105888 (ipc=14.8) sim_rate=24038 (inst/sec) elapsed = 0:0:04:14 / Tue Apr 16 16:58:46 2019
GPGPU-Sim PTX: 6200000 instructions simulated : ctaid=(2,1,0) tid=(95,0,0)
GPGPU-Sim uArch: cycles simulated: 414500  inst.: 6131200 (ipc=14.8) sim_rate=24043 (inst/sec) elapsed = 0:0:04:15 / Tue Apr 16 16:58:47 2019
GPGPU-Sim uArch: cycles simulated: 416500  inst.: 6159104 (ipc=14.8) sim_rate=24059 (inst/sec) elapsed = 0:0:04:16 / Tue Apr 16 16:58:48 2019
GPGPU-Sim uArch: cycles simulated: 418000  inst.: 6176864 (ipc=14.8) sim_rate=24034 (inst/sec) elapsed = 0:0:04:17 / Tue Apr 16 16:58:49 2019
GPGPU-Sim uArch: cycles simulated: 420000  inst.: 6200384 (ipc=14.8) sim_rate=24032 (inst/sec) elapsed = 0:0:04:18 / Tue Apr 16 16:58:50 2019
GPGPU-Sim PTX: 6300000 instructions simulated : ctaid=(4,0,0) tid=(223,0,0)
GPGPU-Sim uArch: cycles simulated: 422000  inst.: 6226784 (ipc=14.8) sim_rate=24041 (inst/sec) elapsed = 0:0:04:19 / Tue Apr 16 16:58:51 2019
GPGPU-Sim uArch: cycles simulated: 423500  inst.: 6244000 (ipc=14.7) sim_rate=24015 (inst/sec) elapsed = 0:0:04:20 / Tue Apr 16 16:58:52 2019
GPGPU-Sim uArch: cycles simulated: 425500  inst.: 6271296 (ipc=14.7) sim_rate=24027 (inst/sec) elapsed = 0:0:04:21 / Tue Apr 16 16:58:53 2019
GPGPU-Sim uArch: cycles simulated: 427500  inst.: 6297152 (ipc=14.7) sim_rate=24034 (inst/sec) elapsed = 0:0:04:22 / Tue Apr 16 16:58:54 2019
GPGPU-Sim uArch: cycles simulated: 429000  inst.: 6316320 (ipc=14.7) sim_rate=24016 (inst/sec) elapsed = 0:0:04:23 / Tue Apr 16 16:58:55 2019
GPGPU-Sim PTX: 6400000 instructions simulated : ctaid=(2,1,0) tid=(127,0,0)
GPGPU-Sim uArch: cycles simulated: 431000  inst.: 6340832 (ipc=14.7) sim_rate=24018 (inst/sec) elapsed = 0:0:04:24 / Tue Apr 16 16:58:56 2019
GPGPU-Sim uArch: cycles simulated: 433000  inst.: 6362304 (ipc=14.7) sim_rate=24008 (inst/sec) elapsed = 0:0:04:25 / Tue Apr 16 16:58:57 2019
GPGPU-Sim uArch: cycles simulated: 434500  inst.: 6383904 (ipc=14.7) sim_rate=23999 (inst/sec) elapsed = 0:0:04:26 / Tue Apr 16 16:58:58 2019
GPGPU-Sim uArch: cycles simulated: 436500  inst.: 6407936 (ipc=14.7) sim_rate=23999 (inst/sec) elapsed = 0:0:04:27 / Tue Apr 16 16:58:59 2019
GPGPU-Sim PTX: 6500000 instructions simulated : ctaid=(3,0,0) tid=(159,0,0)
GPGPU-Sim uArch: cycles simulated: 438500  inst.: 6433440 (ipc=14.7) sim_rate=24005 (inst/sec) elapsed = 0:0:04:28 / Tue Apr 16 16:59:00 2019
GPGPU-Sim uArch: cycles simulated: 440000  inst.: 6452416 (ipc=14.7) sim_rate=23986 (inst/sec) elapsed = 0:0:04:29 / Tue Apr 16 16:59:01 2019
GPGPU-Sim uArch: cycles simulated: 442000  inst.: 6476320 (ipc=14.7) sim_rate=23986 (inst/sec) elapsed = 0:0:04:30 / Tue Apr 16 16:59:02 2019
GPGPU-Sim uArch: cycles simulated: 444000  inst.: 6503744 (ipc=14.6) sim_rate=23999 (inst/sec) elapsed = 0:0:04:31 / Tue Apr 16 16:59:03 2019
GPGPU-Sim uArch: cycles simulated: 445500  inst.: 6520928 (ipc=14.6) sim_rate=23974 (inst/sec) elapsed = 0:0:04:32 / Tue Apr 16 16:59:04 2019
GPGPU-Sim PTX: 6600000 instructions simulated : ctaid=(3,1,0) tid=(95,0,0)
GPGPU-Sim uArch: cycles simulated: 447500  inst.: 6546944 (ipc=14.6) sim_rate=23981 (inst/sec) elapsed = 0:0:04:33 / Tue Apr 16 16:59:05 2019
GPGPU-Sim uArch: cycles simulated: 449500  inst.: 6569024 (ipc=14.6) sim_rate=23974 (inst/sec) elapsed = 0:0:04:34 / Tue Apr 16 16:59:06 2019
GPGPU-Sim uArch: cycles simulated: 451000  inst.: 6587040 (ipc=14.6) sim_rate=23952 (inst/sec) elapsed = 0:0:04:35 / Tue Apr 16 16:59:07 2019
GPGPU-Sim uArch: cycles simulated: 453000  inst.: 6613376 (ipc=14.6) sim_rate=23961 (inst/sec) elapsed = 0:0:04:36 / Tue Apr 16 16:59:08 2019
GPGPU-Sim PTX: 6700000 instructions simulated : ctaid=(3,0,0) tid=(95,0,0)
GPGPU-Sim uArch: cycles simulated: 455000  inst.: 6641120 (ipc=14.6) sim_rate=23975 (inst/sec) elapsed = 0:0:04:37 / Tue Apr 16 16:59:09 2019
GPGPU-Sim uArch: cycles simulated: 457000  inst.: 6664480 (ipc=14.6) sim_rate=23972 (inst/sec) elapsed = 0:0:04:38 / Tue Apr 16 16:59:10 2019
GPGPU-Sim uArch: cycles simulated: 458500  inst.: 6682592 (ipc=14.6) sim_rate=23951 (inst/sec) elapsed = 0:0:04:39 / Tue Apr 16 16:59:11 2019
GPGPU-Sim uArch: cycles simulated: 460500  inst.: 6709760 (ipc=14.6) sim_rate=23963 (inst/sec) elapsed = 0:0:04:40 / Tue Apr 16 16:59:12 2019
GPGPU-Sim PTX: 6800000 instructions simulated : ctaid=(7,0,0) tid=(31,0,0)
GPGPU-Sim uArch: cycles simulated: 462500  inst.: 6732480 (ipc=14.6) sim_rate=23959 (inst/sec) elapsed = 0:0:04:41 / Tue Apr 16 16:59:13 2019
GPGPU-Sim uArch: cycles simulated: 464000  inst.: 6752672 (ipc=14.6) sim_rate=23945 (inst/sec) elapsed = 0:0:04:42 / Tue Apr 16 16:59:14 2019
GPGPU-Sim uArch: cycles simulated: 466000  inst.: 6779808 (ipc=14.5) sim_rate=23956 (inst/sec) elapsed = 0:0:04:43 / Tue Apr 16 16:59:15 2019
GPGPU-Sim uArch: cycles simulated: 468000  inst.: 6799360 (ipc=14.5) sim_rate=23941 (inst/sec) elapsed = 0:0:04:44 / Tue Apr 16 16:59:16 2019
GPGPU-Sim uArch: cycles simulated: 469500  inst.: 6816352 (ipc=14.5) sim_rate=23917 (inst/sec) elapsed = 0:0:04:45 / Tue Apr 16 16:59:17 2019
GPGPU-Sim PTX: 6900000 instructions simulated : ctaid=(8,0,0) tid=(223,0,0)
GPGPU-Sim uArch: cycles simulated: 471500  inst.: 6845088 (ipc=14.5) sim_rate=23933 (inst/sec) elapsed = 0:0:04:46 / Tue Apr 16 16:59:18 2019
GPGPU-Sim uArch: cycles simulated: 473500  inst.: 6870848 (ipc=14.5) sim_rate=23940 (inst/sec) elapsed = 0:0:04:47 / Tue Apr 16 16:59:19 2019
GPGPU-Sim uArch: cycles simulated: 475500  inst.: 6894976 (ipc=14.5) sim_rate=23940 (inst/sec) elapsed = 0:0:04:48 / Tue Apr 16 16:59:20 2019
GPGPU-Sim uArch: cycles simulated: 477000  inst.: 6911328 (ipc=14.5) sim_rate=23914 (inst/sec) elapsed = 0:0:04:49 / Tue Apr 16 16:59:21 2019
GPGPU-Sim PTX: 7000000 instructions simulated : ctaid=(2,2,0) tid=(95,0,0)
GPGPU-Sim uArch: cycles simulated: 479000  inst.: 6938624 (ipc=14.5) sim_rate=23926 (inst/sec) elapsed = 0:0:04:50 / Tue Apr 16 16:59:22 2019
GPGPU-Sim uArch: cycles simulated: 481000  inst.: 6962816 (ipc=14.5) sim_rate=23927 (inst/sec) elapsed = 0:0:04:51 / Tue Apr 16 16:59:23 2019
GPGPU-Sim uArch: cycles simulated: 482500  inst.: 6980320 (ipc=14.5) sim_rate=23905 (inst/sec) elapsed = 0:0:04:52 / Tue Apr 16 16:59:24 2019
GPGPU-Sim uArch: cycles simulated: 484500  inst.: 7001024 (ipc=14.4) sim_rate=23894 (inst/sec) elapsed = 0:0:04:53 / Tue Apr 16 16:59:25 2019
GPGPU-Sim PTX: 7100000 instructions simulated : ctaid=(2,0,0) tid=(159,0,0)
GPGPU-Sim uArch: cycles simulated: 486500  inst.: 7031296 (ipc=14.5) sim_rate=23915 (inst/sec) elapsed = 0:0:04:54 / Tue Apr 16 16:59:26 2019
GPGPU-Sim uArch: cycles simulated: 488000  inst.: 7049568 (ipc=14.4) sim_rate=23896 (inst/sec) elapsed = 0:0:04:55 / Tue Apr 16 16:59:27 2019
GPGPU-Sim uArch: cycles simulated: 490000  inst.: 7072288 (ipc=14.4) sim_rate=23892 (inst/sec) elapsed = 0:0:04:56 / Tue Apr 16 16:59:28 2019
GPGPU-Sim uArch: cycles simulated: 492000  inst.: 7098496 (ipc=14.4) sim_rate=23900 (inst/sec) elapsed = 0:0:04:57 / Tue Apr 16 16:59:29 2019
GPGPU-Sim uArch: cycles simulated: 493500  inst.: 7119520 (ipc=14.4) sim_rate=23891 (inst/sec) elapsed = 0:0:04:58 / Tue Apr 16 16:59:30 2019
GPGPU-Sim PTX: 7200000 instructions simulated : ctaid=(7,0,0) tid=(159,0,0)
GPGPU-Sim uArch: cycles simulated: 495500  inst.: 7142848 (ipc=14.4) sim_rate=23889 (inst/sec) elapsed = 0:0:04:59 / Tue Apr 16 16:59:31 2019
GPGPU-Sim uArch: cycles simulated: 497500  inst.: 7169792 (ipc=14.4) sim_rate=23899 (inst/sec) elapsed = 0:0:05:00 / Tue Apr 16 16:59:32 2019
GPGPU-Sim uArch: cycles simulated: 499000  inst.: 7185728 (ipc=14.4) sim_rate=23872 (inst/sec) elapsed = 0:0:05:01 / Tue Apr 16 16:59:33 2019
GPGPU-Sim uArch: cycles simulated: 501000  inst.: 7211360 (ipc=14.4) sim_rate=23878 (inst/sec) elapsed = 0:0:05:02 / Tue Apr 16 16:59:34 2019
GPGPU-Sim PTX: 7300000 instructions simulated : ctaid=(9,0,0) tid=(127,0,0)
GPGPU-Sim uArch: cycles simulated: 502500  inst.: 7231040 (ipc=14.4) sim_rate=23864 (inst/sec) elapsed = 0:0:05:03 / Tue Apr 16 16:59:35 2019
GPGPU-Sim uArch: cycles simulated: 504500  inst.: 7253344 (ipc=14.4) sim_rate=23859 (inst/sec) elapsed = 0:0:05:04 / Tue Apr 16 16:59:36 2019
GPGPU-Sim uArch: cycles simulated: 506000  inst.: 7272736 (ipc=14.4) sim_rate=23845 (inst/sec) elapsed = 0:0:05:05 / Tue Apr 16 16:59:37 2019
GPGPU-Sim uArch: cycles simulated: 508000  inst.: 7300864 (ipc=14.4) sim_rate=23859 (inst/sec) elapsed = 0:0:05:06 / Tue Apr 16 16:59:38 2019
GPGPU-Sim uArch: cycles simulated: 510000  inst.: 7321024 (ipc=14.4) sim_rate=23846 (inst/sec) elapsed = 0:0:05:07 / Tue Apr 16 16:59:39 2019
GPGPU-Sim PTX: 7400000 instructions simulated : ctaid=(10,1,0) tid=(31,0,0)
GPGPU-Sim uArch: cycles simulated: 511500  inst.: 7339776 (ipc=14.3) sim_rate=23830 (inst/sec) elapsed = 0:0:05:08 / Tue Apr 16 16:59:40 2019
GPGPU-Sim uArch: cycles simulated: 513000  inst.: 7358528 (ipc=14.3) sim_rate=23814 (inst/sec) elapsed = 0:0:05:09 / Tue Apr 16 16:59:41 2019
GPGPU-Sim uArch: cycles simulated: 515000  inst.: 7384512 (ipc=14.3) sim_rate=23821 (inst/sec) elapsed = 0:0:05:10 / Tue Apr 16 16:59:42 2019
GPGPU-Sim uArch: cycles simulated: 517000  inst.: 7409056 (ipc=14.3) sim_rate=23823 (inst/sec) elapsed = 0:0:05:11 / Tue Apr 16 16:59:43 2019
GPGPU-Sim PTX: 7500000 instructions simulated : ctaid=(3,2,0) tid=(31,0,0)
GPGPU-Sim uArch: cycles simulated: 518500  inst.: 7426976 (ipc=14.3) sim_rate=23804 (inst/sec) elapsed = 0:0:05:12 / Tue Apr 16 16:59:44 2019
GPGPU-Sim uArch: cycles simulated: 520000  inst.: 7448224 (ipc=14.3) sim_rate=23796 (inst/sec) elapsed = 0:0:05:13 / Tue Apr 16 16:59:45 2019
GPGPU-Sim uArch: cycles simulated: 522000  inst.: 7471296 (ipc=14.3) sim_rate=23793 (inst/sec) elapsed = 0:0:05:14 / Tue Apr 16 16:59:46 2019
GPGPU-Sim uArch: cycles simulated: 523500  inst.: 7490240 (ipc=14.3) sim_rate=23778 (inst/sec) elapsed = 0:0:05:15 / Tue Apr 16 16:59:47 2019
GPGPU-Sim uArch: cycles simulated: 525500  inst.: 7514304 (ipc=14.3) sim_rate=23779 (inst/sec) elapsed = 0:0:05:16 / Tue Apr 16 16:59:48 2019
[...]
dram[5]:  1.161960  1.159200  1.159366  1.160758  1.165336  1.158798  1.165458  1.166171  1.156927  1.166627  1.164032  1.168669  1.162254  1.161784  1.163378  1.160349 
average row locality = 1846326/1588139 = 1.162572
number of total memory accesses made:
dram[0]:         0         0         0         0         0         0         0         0         0         0         0         0         0         0         0         0 
dram[1]:         0         0         0         0         0         0         0         0         0         0         0         0         0         0         0         0 
dram[2]:         0         0         0         0         0         0         0         0         0         0         0         0         0         0         0         0 
dram[3]:         0         0         0         0         0         0         0         0         0         0         0         0         0         0         0         0 
dram[4]:         0         0         0         0         0         0         0         0         0         0         0         0         0         0         0         0 
dram[5]:         0         0         0         0         0         0         0         0         0         0         0         0         0         0         0         0 
total accesses: 0
min_bank_accesses = 0!
min_chip_accesses = 0!
number of total read accesses:
dram[0]:     18557     18682     19180     18921     19076     19221     19559     19556     19150     19205     19301     19163     18586     18722     19013     18872 
dram[1]:     18995     18851     19229     19224     19321     19334     19741     19775     19631     19380     19423     19259     19010     18862     19111     19089 
dram[2]:     19155     19022     19324     19191     19426     19301     19934     19919     19666     19411     19550     19341     19023     19141     19333     19203 
dram[3]:     18776     18803     18683     18942     19007     19109     19292     19596     19257     19328     18920     19205     18692     18907     18679     19034 
dram[4]:     19445     19257     19541     19345     19678     19533     19960     20154     19932     19600     19707     19526     19294     19169     19497     19428 
dram[5]:     18697     18773     19031     18564     19122     19316     19441     19208     19323     19408     19146     18874     18769     18970     18863     18794 
total reads: 1844534
bank skew: 20154/18557 = 1.09
chip skew: 313066/304230 = 1.03
number of total write accesses:
dram[0]:        64        64         0         0         0         0         0         0         0         0         0         0        20        20        64        64 
dram[1]:        64        64         0         0         0         0         0         0         0         0         0         0        20        20        64        64 
dram[2]:        64        64         0         0         0         0         0         0         0         0         0         0        20        24        64        64 
dram[3]:        64        64         0         0         0         0         0         0         0         0         0         0        20        24        64        64 
dram[4]:        64        64         0         0         0         0         0         0         0         0         0         0        20        24        64        64 
dram[5]:        64        64         0         0         0         0         0         0         0         0         0         0        20        24        64        64 
total reads: 1792
min_bank_accesses = 0!
chip skew: 300/296 = 1.01
average mf latency per bank:
dram[0]:       4007      3988      4838      4976      3925      3925      3922      3908      3936      3967      3876      3879      3978      3985      3941      3965
dram[1]:       3950      3997      4931      4945      3923      3942      3923      3907      3899      3980      3892      3911      3946      4007      3958      3975
dram[2]:       3898      3944      4888      4964      3907      3933      3839      3887      3890      3929      3825      3910      3956      3902      3873      3916
dram[3]:       3990      3990      5059      5018      4000      3978      3980      3951      3999      3955      3965      3954      4036      3968      4031      3959
dram[4]:       3863      3887      4845      4633      3834      3880      3865      3801      3817      3900      3819      3832      3866      3920      3848      3847
dram[5]:       4015      3883      5008      3920      3951      3824      3974      3875      3958      3844      3934      3851      3983      3858      4006      3886
maximum mf latency per bank:
dram[0]:        500       515       550       549       521       495       545       548       520       479       519       534       548       515       534       533
dram[1]:        505       481       486       497       472       478       481       484       480       474       488       515       487       526       483       478
dram[2]:        545       508       522       532       493       510       523       536       520       556       484       517       493       483       510       530
dram[3]:        484       513       481       515       491       485       486       491       474       490       485       492       490       513       491       482
dram[4]:        496       531       480       533       536       574       506       556       479       482       518       506       503       536       484       522
dram[5]:        474       470       508       472       475       459       493       492       483       470       541       463       536       491       489       504

Number of Memory Banks Accessed per Memory Operation per Warp (from 0):
0	0	0	0	0	0	0	0	0	0	0	0	0	0	0	0	0	0	0	0	0	0	0	0	0	0	0	0	0	0	0	0	0	0	0	0	0	0	0	0	0	0	0	0	0	0	0	0	0	0	0	0	0	0	0	0	0	0	0	0	0	0	0	0	0	0	0	0	0	0	0	0	0	0	0	0	0	0	0	0	0	0	0	0	0	0	0	0	0	0	0	0	0	0	0	0	
Average # of Memory Banks Accessed per Memory Operation per Warp=-nan

position of mrq chosen
0	0	0	0	0	0	0	0	0	0	0	0	0	0	0	0	

average position of mrq chosen = -nan
Memory Partition 0: 
Cache L2_bank_000:
MSHR contents

Cache L2_bank_001:
MSHR contents

In Dram Latency Queue (total = 0): 
DRAM[0]: 16 bks, busW=4 BL=8 CL=12, tRRD=2 tCCD=6, tRCD=12 tRAS=28 tRP=12 tRC=40
n_cmd=52171436 n_nop=51037020 n_act=262156 n_pre=262140 n_req=305060 n_rd=609528 n_write=592 bw_util=0.02339
n_activity=11731608 dram_eff=0.104
bk0: 37114a 51688430i bk1: 37364a 51687597i bk2: 38360a 51674826i bk3: 37842a 51684884i bk4: 38152a 51675681i bk5: 38442a 51676625i bk6: 39118a 51665125i bk7: 39112a 51665990i bk8: 38300a 51675037i bk9: 38410a 51675462i bk10: 38602a 51672941i bk11: 38326a 51679092i bk12: 37172a 51690898i bk13: 37444a 51687828i bk14: 38026a 51678047i bk15: 37744a 51683771i 
dram_util_bins: 0 0 0 0 0 0 0 0 0 0
dram_eff_bins: 0 0 0 0 0 0 0 0 0 0
mrqq: max=16 avg=0.00157151
Memory Partition 1: 
Cache L2_bank_002:
MSHR contents

Cache L2_bank_003:
MSHR contents

In Dram Latency Queue (total = 0): 
DRAM[1]: 16 bks, busW=4 BL=8 CL=12, tRRD=2 tCCD=6, tRCD=12 tRAS=28 tRP=12 tRC=40
n_cmd=52171436 n_nop=51023352 n_act=265519 n_pre=265503 n_req=308531 n_rd=616470 n_write=592 bw_util=0.02366
n_activity=11807888 dram_eff=0.1045
bk0: 37990a 51679269i bk1: 37702a 51683531i bk2: 38458a 51672316i bk3: 38448a 51676179i bk4: 38642a 51669935i bk5: 38668a 51673215i bk6: 39482a 51658874i bk7: 39550a 51661516i bk8: 39262a 51661708i bk9: 38760a 51669028i bk10: 38846a 51669983i bk11: 38518a 51674994i bk12: 38020a 51678223i bk13: 37724a 51682838i bk14: 38222a 51676313i bk15: 38178a 51676296i 
dram_util_bins: 0 0 0 0 0 0 0 0 0 0
dram_eff_bins: 0 0 0 0 0 0 0 0 0 0
mrqq: max=9 avg=0.00141221
Memory Partition 2: 
Cache L2_bank_004:
MSHR contents

Cache L2_bank_005:
MSHR contents

In Dram Latency Queue (total = 0): 
DRAM[2]: 16 bks, busW=4 BL=8 CL=12, tRRD=2 tCCD=6, tRCD=12 tRAS=28 tRP=12 tRC=40
n_cmd=52171436 n_nop=51017684 n_act=266644 n_pre=266628 n_req=310240 n_rd=619880 n_write=600 bw_util=0.02379
n_activity=11824536 dram_eff=0.1049
bk0: 38310a 51672122i bk1: 38044a 51679148i bk2: 38648a 51670201i bk3: 38382a 51676854i bk4: 38852a 51667946i bk5: 38602a 51675217i bk6: 39868a 51654015i bk7: 39838a 51658048i bk8: 39332a 51660561i bk9: 38822a 51669987i bk10: 39100a 51665079i bk11: 38682a 51672692i bk12: 38046a 51678256i bk13: 38282a 51676712i bk14: 38666a 51667568i bk15: 38406a 51674165i 
dram_util_bins: 0 0 0 0 0 0 0 0 0 0
dram_eff_bins: 0 0 0 0 0 0 0 0 0 0
mrqq: max=16 avg=0.00178293
Memory Partition 3: 
Cache L2_bank_006:
MSHR contents

Cache L2_bank_007:
MSHR contents

In Dram Latency Queue (total = 0): 
DRAM[3]: 16 bks, busW=4 BL=8 CL=12, tRRD=2 tCCD=6, tRCD=12 tRAS=28 tRP=12 tRC=40
n_cmd=52171436 n_nop=51037186 n_act=262603 n_pre=262587 n_req=304530 n_rd=608460 n_write=600 bw_util=0.02335
n_activity=11674282 dram_eff=0.1043
bk0: 37552a 51682898i bk1: 37606a 51684343i bk2: 37366a 51686123i bk3: 37884a 51681715i bk4: 38014a 51676691i bk5: 38218a 51677708i bk6: 38584a 51670383i bk7: 39192a 51666020i bk8: 38514a 51670170i bk9: 38656a 51671284i bk10: 37840a 51681425i bk11: 38410a 51677693i bk12: 37384a 51686674i bk13: 37814a 51682122i bk14: 37358a 51684730i bk15: 38068a 51675767i 
dram_util_bins: 0 0 0 0 0 0 0 0 0 0
dram_eff_bins: 0 0 0 0 0 0 0 0 0 0
mrqq: max=8 avg=0.00137481
Memory Partition 4: 
Cache L2_bank_008:
MSHR contents

Cache L2_bank_009:
MSHR contents

In Dram Latency Queue (total = 0): 
DRAM[4]: 16 bks, busW=4 BL=8 CL=12, tRRD=2 tCCD=6, tRCD=12 tRAS=28 tRP=12 tRC=40
n_cmd=52171436 n_nop=51006296 n_act=269212 n_pre=269196 n_req=313366 n_rd=626132 n_write=600 bw_util=0.02403
n_activity=11896390 dram_eff=0.1054
bk0: 38890a 51666052i bk1: 38514a 51672878i bk2: 39082a 51666371i bk3: 38690a 51672517i bk4: 39356a 51660889i bk5: 39066a 51666294i bk6: 39920a 51653874i bk7: 40308a 51652948i bk8: 39864a 51654378i bk9: 39200a 51663458i bk10: 39414a 51663319i bk11: 39052a 51669967i bk12: 38588a 51670067i bk13: 38338a 51674530i bk14: 38994a 51664046i bk15: 38856a 51668721i 
dram_util_bins: 0 0 0 0 0 0 0 0 0 0
dram_eff_bins: 0 0 0 0 0 0 0 0 0 0
mrqq: max=16 avg=0.00170975
Memory Partition 5: 
Cache L2_bank_010:
MSHR contents

Cache L2_bank_011:
MSHR contents
MSHR: tag=0x81e4bf80, atomic=0 1 entries : 0x7f7461a0e4e0 :  mf: uid=565796356, sid13:w15, part=5, addr=0x81e4bf80, load , size=128, unknown  status = IN_PARTITION_DRAM (39523814), 

In Dram Latency Queue (total = 0): 
DRAM[5]: 16 bks, busW=4 BL=8 CL=12, tRRD=2 tCCD=6, tRCD=12 tRAS=28 tRP=12 tRC=40
n_cmd=52171436 n_nop=51038242 n_act=262006 n_pre=261990 n_req=304599 n_rd=608598 n_write=600 bw_util=0.02335
n_activity=11712234 dram_eff=0.104
bk0: 37394a 51685410i bk1: 37546a 51685231i bk2: 38062a 51677762i bk3: 37128a 51692942i bk4: 38244a 51678634i bk5: 38632a 51673829i bk6: 38882a 51669449i bk7: 38416a 51677348i bk8: 38646a 51669264i bk9: 38816a 51672517i bk10: 38292a 51675105i bk11: 37748a 51686526i bk12: 37538a 51684557i bk13: 37940a 51681388i bk14: 37726a 51681185i bk15: 37588a 51684141i 
dram_util_bins: 0 0 0 0 0 0 0 0 0 0
dram_eff_bins: 0 0 0 0 0 0 0 0 0 0
mrqq: max=7 avg=0.00143515

========= L2 cache stats =========
L2_cache_bank[0]: Access = 3100617, Miss = 152422, Miss_rate = 0.049, Pending_hits = 10, Reservation_fails = 95
L2_cache_bank[1]: Access = 3109418, Miss = 152342, Miss_rate = 0.049, Pending_hits = 1, Reservation_fails = 0
L2_cache_bank[2]: Access = 3114474, Miss = 154461, Miss_rate = 0.050, Pending_hits = 6, Reservation_fails = 220
L2_cache_bank[3]: Access = 3112141, Miss = 153774, Miss_rate = 0.049, Pending_hits = 5, Reservation_fails = 0
L2_cache_bank[4]: Access = 3113700, Miss = 155411, Miss_rate = 0.050, Pending_hits = 4, Reservation_fails = 99
L2_cache_bank[5]: Access = 3114239, Miss = 154529, Miss_rate = 0.050, Pending_hits = 3, Reservation_fails = 0
L2_cache_bank[6]: Access = 3103560, Miss = 151306, Miss_rate = 0.049, Pending_hits = 5, Reservation_fails = 0
L2_cache_bank[7]: Access = 3107823, Miss = 152924, Miss_rate = 0.049, Pending_hits = 5, Reservation_fails = 0
L2_cache_bank[8]: Access = 3103906, Miss = 157054, Miss_rate = 0.051, Pending_hits = 3, Reservation_fails = 0
L2_cache_bank[9]: Access = 3088915, Miss = 156012, Miss_rate = 0.051, Pending_hits = 0, Reservation_fails = 0
L2_cache_bank[10]: Access = 3112026, Miss = 152392, Miss_rate = 0.049, Pending_hits = 5, Reservation_fails = 0
L2_cache_bank[11]: Access = 3008217, Miss = 151907, Miss_rate = 0.050, Pending_hits = 0, Reservation_fails = 0
L2_total_cache_accesses = 37189036
L2_total_cache_misses = 1844534
L2_total_cache_miss_rate = 0.0496
L2_total_cache_pending_hits = 47
L2_total_cache_reservation_fails = 414
L2_total_cache_breakdown:
	L2_cache_stats_breakdown[GLOBAL_ACC_R][HIT] = 35344384
	L2_cache_stats_breakdown[GLOBAL_ACC_R][HIT_RESERVED] = 35
	L2_cache_stats_breakdown[GLOBAL_ACC_R][MISS] = 1842735
	L2_cache_stats_breakdown[CONST_ACC_R][HIT] = 11
	L2_cache_stats_breakdown[CONST_ACC_R][HIT_RESERVED] = 3
	L2_cache_stats_breakdown[CONST_ACC_R][MISS] = 1
	L2_cache_stats_breakdown[CONST_ACC_R][RESERVATION_FAIL] = 95
	L2_cache_stats_breakdown[GLOBAL_ACC_W][MISS] = 1792
	L2_cache_stats_breakdown[INST_ACC_R][HIT] = 60
	L2_cache_stats_breakdown[INST_ACC_R][HIT_RESERVED] = 9
	L2_cache_stats_breakdown[INST_ACC_R][MISS] = 6
	L2_cache_stats_breakdown[INST_ACC_R][RESERVATION_FAIL] = 319
L2_cache_data_port_util = 0.298
L2_cache_fill_port_util = 0.016

icnt_total_pkts_mem_to_simt=185937982
icnt_total_pkts_simt_to_mem=37196204
LD_mem_lat_dist  0 0 0 0 0 0 0 0 0 0 0 0 0 0 0 0 0 0 0 0 0 0 0 0 0 0 0
ST_mem_lat_dist  0 0 0 0 0 0 0 0 0 0 0 0 0 0 0 0 0 0 0 0 0 0 0 0 0 0 0
----------------------------Interconnect-DETAILS--------------------------------
Class 0:
Packet latency average = 20.7185
	minimum = 6
	maximum = 170
Network latency average = 17.0115
	minimum = 6
	maximum = 140
Slowest packet = 37193367
Flit latency average = 16.2241
	minimum = 6
	maximum = 136
Slowest flit = 212573804
Fragmentation average = 0
	minimum = 0
	maximum = 0
Injected packet rate average = 0.0697517
	minimum = 0.0587441 (at node 2)
	maximum = 0.0788803 (at node 20)
Accepted packet rate average = 0.0697517
	minimum = 0.0587441 (at node 2)
	maximum = 0.0788803 (at node 20)
Injected flit rate average = 0.209255
	minimum = 0.0587555 (at node 2)
	maximum = 0.394386 (at node 20)
Accepted flit rate average= 0.209255
	minimum = 0.0761996 (at node 26)
	maximum = 0.337125 (at node 1)
Injected packet length average = 3
Accepted packet length average = 3
Total in-flight flits = 0 (0 measured)
====== Overall Traffic Statistics ======
====== Traffic class 0 ======
Packet latency average = 20.7265 (2 samples)
	minimum = 6 (2 samples)
	maximum = 167 (2 samples)
Network latency average = 17.0165 (2 samples)
	minimum = 6 (2 samples)
	maximum = 139 (2 samples)
Flit latency average = 16.2298 (2 samples)
	minimum = 6 (2 samples)
	maximum = 135 (2 samples)
Fragmentation average = 0 (2 samples)
	minimum = 0 (2 samples)
	maximum = 0 (2 samples)
Injected packet rate average = 0.0696984 (2 samples)
	minimum = 0.0587266 (2 samples)
	maximum = 0.078807 (2 samples)
Accepted packet rate average = 0.0696984 (2 samples)
	minimum = 0.0587266 (2 samples)
	maximum = 0.078807 (2 samples)
Injected flit rate average = 0.209095 (2 samples)
	minimum = 0.058738 (2 samples)
	maximum = 0.39402 (2 samples)
Accepted flit rate average = 0.209095 (2 samples)
	minimum = 0.0761269 (2 samples)
	maximum = 0.336574 (2 samples)
Injected packet size average = 3 (2 samples)
Accepted packet size average = 3 (2 samples)
Hops average = 1 (2 samples)
----------------------------END-of-Interconnect-DETAILS-------------------------


gpgpu_simulation_time = 0 days, 4 hrs, 42 min, 21 sec (16941 sec)
gpgpu_simulation_rate = 28445 (inst/sec)
gpgpu_simulation_rate = 2333 (cycle/sec)
GPGPU-Sim: synchronize waiting for inactive GPU simulation
GPGPU-Sim API: Stream Manager State
GPGPU-Sim: detected inactive GPU simulation thread
iterated 2 times

================= Centroid Coordinates =================
0: 1.23 613.61 527.61 0.00 0.00 0.01 0.00 0.00 0.00 0.00 0.03 0.01 0.00 0.00 0.00 8.15 11.06 0.00 0.00 0.00 0.00 0.99 0.01 0.22 139.44 193.37 0.83 0.02 0.06 0.01 0.00 0.00 0.00 0.00 1.00 1.23 613.61 527.61 0.00 0.00 0.01 0.00 0.00 0.00 0.00 0.03 0.01 0.00 0.00 0.00 8.15 11.06 0.00 0.00 0.00 0.00 0.99 0.01 0.22 139.44 193.37 0.83 0.02 0.06 0.01 0.00 0.00 0.00 0.00 1.23 613.61 527.61 0.00 0.00 0.01 0.00 0.00 0.00 0.00 0.03 0.01 0.00 0.00 0.00 8.15 11.06 0.00 0.00 0.00 0.00 0.99 0.01 0.22 139.44 193.37 0.83 0.02 0.06 0.01 0.00 0.00 0.00 0.00 1.00 1.23 613.61 527.61 0.00 0.00 0.01 0.00 0.00 0.00 0.00 0.03 0.01 0.00 0.00 0.00 8.15 11.06 0.00 0.00 0.00 0.00 0.99 0.01 0.22 139.44 193.37 0.83 0.02 0.06 0.01 0.00 0.00 0.00 0.00

1: 1.45 15177.44 214.67 0.00 0.00 0.01 0.00 0.00 0.00 0.00 0.00 0.02 0.01 0.02 0.00 4.59 5.07 0.00 0.01 0.00 0.00 0.98 0.03 0.25 129.85 98.10 0.52 0.05 0.20 0.01 0.00 0.00 0.00 0.00 1.00 1.45 15177.44 214.67 0.00 0.00 0.01 0.00 0.00 0.00 0.00 0.00 0.02 0.01 0.02 0.00 4.59 5.07 0.00 0.01 0.00 0.00 0.98 0.03 0.25 129.85 98.10 0.52 0.05 0.20 0.01 0.00 0.00 0.00 0.00 1.45 15177.44 214.67 0.00 0.00 0.01 0.00 0.00 0.00 0.00 0.00 0.02 0.01 0.02 0.00 4.59 5.07 0.00 0.01 0.00 0.00 0.98 0.03 0.25 129.85 98.10 0.52 0.05 0.20 0.01 0.00 0.00 0.00 0.00 1.00 1.45 15177.44 214.67 0.00 0.00 0.01 0.00 0.00 0.00 0.00 0.00 0.02 0.01 0.02 0.00 4.59 5.07 0.00 0.01 0.00 0.00 0.98 0.03 0.25 129.85 98.10 0.52 0.05 0.20 0.01 0.00 0.00 0.00 0.00

2: 3.74 600.16 40.36 0.01 0.00 0.00 0.00 0.00 0.00 0.00 0.00 0.00 0.00 0.00 0.00 338.62 287.90 0.24 0.24 0.03 0.03 0.75 0.04 0.03 240.64 180.98 0.72 0.05 0.58 0.00 0.24 0.24 0.03 0.03 1.00 3.74 600.16 40.36 0.01 0.00 0.00 0.00 0.00 0.00 0.00 0.00 0.00 0.00 0.00 0.00 338.62 287.90 0.24 0.24 0.03 0.03 0.75 0.04 0.03 240.64 180.98 0.72 0.05 0.58 0.00 0.24 0.24 0.03 0.03 3.74 600.16 40.36 0.01 0.00 0.00 0.00 0.00 0.00 0.00 0.00 0.00 0.00 0.00 0.00 338.62 287.90 0.24 0.24 0.03 0.03 0.75 0.04 0.03 240.64 180.98 0.72 0.05 0.58 0.00 0.24 0.24 0.03 0.03 1.00 3.74 600.16 40.36 0.01 0.00 0.00 0.00 0.00 0.00 0.00 0.00 0.00 0.00 0.00 0.00 338.62 287.90 0.24 0.24 0.03 0.03 0.75 0.04 0.03 240.64 180.98 0.72 0.05 0.58 0.00 0.24 0.24 0.03 0.03

3: 21.48 303.12 20528.08 0.00 0.00 0.03 0.00 0.16 0.00 0.00 0.17 0.01 0.00 0.00 0.00 7.59 11.10 0.00 0.01 0.00 0.00 1.00 0.00 0.13 130.51 246.12 0.99 0.00 0.06 0.02 0.00 0.00 0.00 0.00 1.00 21.48 303.12 20528.08 0.00 0.00 0.03 0.00 0.16 0.00 0.00 0.17 0.01 0.00 0.00 0.00 7.59 11.10 0.00 0.01 0.00 0.00 1.00 0.00 0.13 130.51 246.12 0.99 0.00 0.06 0.02 0.00 0.00 0.00 0.00 21.48 303.12 20528.08 0.00 0.00 0.03 0.00 0.16 0.00 0.00 0.17 0.01 0.00 0.00 0.00 7.59 11.10 0.00 0.01 0.00 0.00 1.00 0.00 0.13 130.51 246.12 0.99 0.00 0.06 0.02 0.00 0.00 0.00 0.00 1.00 21.48 303.12 20528.08 0.00 0.00 0.03 0.00 0.16 0.00 0.00 0.17 0.01 0.00 0.00 0.00 7.59 11.10 0.00 0.01 0.00 0.00 1.00 0.00 0.13 130.51 246.12 0.99 0.00 0.06 0.02 0.00 0.00 0.00 0.00

4: 0.31 264.14 2561.85 0.00 0.00 0.06 0.00 0.00 0.00 0.00 0.00 0.00 0.00 0.01 0.00 9.81 13.92 0.00 0.00 0.00 0.00 1.00 0.00 0.10 132.64 245.89 0.99 0.00 0.05 0.02 0.00 0.00 0.00 0.00 1.00 0.31 264.14 2561.85 0.00 0.00 0.06 0.00 0.00 0.00 0.00 0.00 0.00 0.00 0.01 0.00 9.81 13.92 0.00 0.00 0.00 0.00 1.00 0.00 0.10 132.64 245.89 0.99 0.00 0.05 0.02 0.00 0.00 0.00 0.00 0.31 264.14 2561.85 0.00 0.00 0.06 0.00 0.00 0.00 0.00 0.00 0.00 0.00 0.01 0.00 9.81 13.92 0.00 0.00 0.00 0.00 1.00 0.00 0.10 132.64 245.89 0.99 0.00 0.05 0.02 0.00 0.00 0.00 0.00 1.00 0.31 264.14 2561.85 0.00 0.00 0.06 0.00 0.00 0.00 0.00 0.00 0.00 0.00 0.01 0.00 9.81 13.92 0.00 0.00 0.00 0.00 1.00 0.00 0.10 132.64 245.89 0.99 0.00 0.05 0.02 0.00 0.00 0.00 0.00

Number of Iteration: 1
Time for I/O: 0.00000sec
Time for Entire Clustering: 0.00000sec
Root Mean Squared Error: 55443.000
