

        *** GPGPU-Sim Simulator Version 3.2.2  [build 0] ***


GPGPU-Sim PTX: simulation mode 0 (can change with PTX_SIM_MODE_FUNC environment variable:
               1=functional simulation only, 0=detailed performance simulator)
GPGPU-Sim: Configuration options:

-network_mode                           1 # Interconnection network mode
-inter_config_file   config_fermi_islip.icnt # Interconnection network config file
-gpgpu_ptx_use_cuobjdump                    1 # Use cuobjdump to extract ptx and sass from binaries
-gpgpu_experimental_lib_support                    0 # Try to extract code from cuda libraries [Broken because of unknown cudaGetExportTable]
-gpgpu_ptx_convert_to_ptxplus                    0 # Convert SASS (native ISA) to ptxplus and run ptxplus
-gpgpu_ptx_force_max_capability                   20 # Force maximum compute capability
-gpgpu_ptx_inst_debug_to_file                    0 # Dump executed instructions' debug information to file
-gpgpu_ptx_inst_debug_file       inst_debug.txt # Executed instructions' debug output file
-gpgpu_ptx_inst_debug_thread_uid                    1 # Thread UID for executed instructions' debug output
-gpgpu_simd_model                       1 # 1 = post-dominator
-gpgpu_shader_core_pipeline              1536:32 # shader core pipeline config, i.e., {<nthread>:<warpsize>}
-gpgpu_tex_cache:l1  4:128:24,L:R:m:N:L,F:128:4,128:2 # per-shader L1 texture cache  (READ-ONLY) config  {<nsets>:<bsize>:<assoc>,<rep>:<wr>:<alloc>:<wr_alloc>,<mshr>:<N>:<merge>,<mq>:<rf>}
-gpgpu_const_cache:l1 64:64:2,L:R:f:N:L,A:2:32,4 # per-shader L1 constant memory cache  (READ-ONLY) config  {<nsets>:<bsize>:<assoc>,<rep>:<wr>:<alloc>:<wr_alloc>,<mshr>:<N>:<merge>,<mq>} 
-gpgpu_cache:il1     4:128:4,L:R:f:N:L,A:2:32,4 # shader L1 instruction cache config  {<nsets>:<bsize>:<assoc>,<rep>:<wr>:<alloc>:<wr_alloc>,<mshr>:<N>:<merge>,<mq>} 
-gpgpu_cache:dl1     32:128:2,L:L:m:N:H,A:32:8,8 # per-shader L1 data cache config  {<nsets>:<bsize>:<assoc>,<rep>:<wr>:<alloc>:<wr_alloc>,<mshr>:<N>:<merge>,<mq> | none}
-gpgpu_cache:dl1PrefL1                 none # per-shader L1 data cache config  {<nsets>:<bsize>:<assoc>,<rep>:<wr>:<alloc>:<wr_alloc>,<mshr>:<N>:<merge>,<mq> | none}
-gpgpu_cache:dl1PreShared                 none # per-shader L1 data cache config  {<nsets>:<bsize>:<assoc>,<rep>:<wr>:<alloc>:<wr_alloc>,<mshr>:<N>:<merge>,<mq> | none}
-gmem_skip_L1D                          0 # global memory access skip L1D cache (implements -Xptxas -dlcm=cg, default=no skip)
-gpgpu_perfect_mem                      0 # enable perfect memory mode (no cache miss)
-n_regfile_gating_group                    4 # group of lanes that should be read/written together)
-gpgpu_clock_gated_reg_file                    0 # enable clock gated reg file for power calculations
-gpgpu_clock_gated_lanes                    0 # enable clock gated lanes for power calculations
-gpgpu_shader_registers                32768 # Number of registers per shader core. Limits number of concurrent CTAs. (default 8192)
-gpgpu_shader_cta                       8 # Maximum number of concurrent CTAs in shader (default 8)
-gpgpu_num_cta_barriers                   16 # Maximum number of named barriers per CTA (default 16)
-gpgpu_n_clusters                      15 # number of processing clusters
-gpgpu_n_cores_per_cluster                    1 # number of simd cores per cluster
-gpgpu_n_cluster_ejection_buffer_size                    8 # number of packets in ejection buffer
-gpgpu_n_ldst_response_buffer_size                    2 # number of response packets in ld/st unit ejection buffer
-gpgpu_shmem_size                   16384 # Size of shared memory per shader core (default 16kB)
-gpgpu_shmem_size                   49152 # Size of shared memory per shader core (default 16kB)
-gpgpu_shmem_size_PrefL1                16384 # Size of shared memory per shader core (default 16kB)
-gpgpu_shmem_size_PrefShared                16384 # Size of shared memory per shader core (default 16kB)
-gpgpu_shmem_num_banks                   32 # Number of banks in the shared memory in each shader core (default 16)
-gpgpu_shmem_limited_broadcast                    0 # Limit shared memory to do one broadcast per cycle (default on)
-gpgpu_shmem_warp_parts                    1 # Number of portions a warp is divided into for shared memory bank conflict check 
-gpgpu_warpdistro_shader                   -1 # Specify which shader core to collect the warp size distribution from
-gpgpu_warp_issue_shader                    0 # Specify which shader core to collect the warp issue distribution from
-gpgpu_local_mem_map                    1 # Mapping from local memory space address to simulated GPU physical address space (default = enabled)
-gpgpu_num_reg_banks                   16 # Number of register banks (default = 8)
-gpgpu_reg_bank_use_warp_id                    0 # Use warp ID in mapping registers to banks (default = off)
-gpgpu_operand_collector_num_units_sp                    6 # number of collector units (default = 4)
-gpgpu_operand_collector_num_units_sfu                    8 # number of collector units (default = 4)
-gpgpu_operand_collector_num_units_mem                    2 # number of collector units (default = 2)
-gpgpu_operand_collector_num_units_gen                    0 # number of collector units (default = 0)
-gpgpu_operand_collector_num_in_ports_sp                    2 # number of collector unit in ports (default = 1)
-gpgpu_operand_collector_num_in_ports_sfu                    1 # number of collector unit in ports (default = 1)
-gpgpu_operand_collector_num_in_ports_mem                    1 # number of collector unit in ports (default = 1)
-gpgpu_operand_collector_num_in_ports_gen                    0 # number of collector unit in ports (default = 0)
-gpgpu_operand_collector_num_out_ports_sp                    2 # number of collector unit in ports (default = 1)
-gpgpu_operand_collector_num_out_ports_sfu                    1 # number of collector unit in ports (default = 1)
-gpgpu_operand_collector_num_out_ports_mem                    1 # number of collector unit in ports (default = 1)
-gpgpu_operand_collector_num_out_ports_gen                    0 # number of collector unit in ports (default = 0)
-gpgpu_coalesce_arch                   13 # Coalescing arch (default = 13, anything else is off for now)
-gpgpu_num_sched_per_core                    2 # Number of warp schedulers per core
-gpgpu_max_insn_issue_per_warp                    1 # Max number of instructions that can be issued per warp in one cycle by scheduler
-gpgpu_simt_core_sim_order                    1 # Select the simulation order of cores in a cluster (0=Fix, 1=Round-Robin)
-gpgpu_pipeline_widths        2,1,1,2,1,1,2 # Pipeline widths ID_OC_SP,ID_OC_SFU,ID_OC_MEM,OC_EX_SP,OC_EX_SFU,OC_EX_MEM,EX_WB
-gpgpu_num_sp_units                     2 # Number of SP units (default=1)
-gpgpu_num_sfu_units                    1 # Number of SF units (default=1)
-gpgpu_num_mem_units                    1 # Number if ldst units (default=1) WARNING: not hooked up to anything
-gpgpu_scheduler                      gto # Scheduler configuration: < lrr | gto | two_level_active > If two_level_active:<num_active_warps>:<inner_prioritization>:<outer_prioritization>For complete list of prioritization values see shader.h enum scheduler_prioritization_typeDefault: gto
-gpgpu_dram_scheduler                    1 # 0 = fifo, 1 = FR-FCFS (defaul)
-gpgpu_dram_partition_queues              8:8:8:8 # i2$:$2d:d2$:$2i
-l2_ideal                               0 # Use a ideal L2 cache that always hit
-gpgpu_cache:dl2     64:128:8,L:B:m:W:L,A:32:4,4:0,32 # unified banked L2 data cache config  {<nsets>:<bsize>:<assoc>,<rep>:<wr>:<alloc>:<wr_alloc>,<mshr>:<N>:<merge>,<mq>}
-gpgpu_cache:dl2_texture_only                    0 # L2 cache used for texture only
-gpgpu_n_mem                            6 # number of memory modules (e.g. memory controllers) in gpu
-gpgpu_n_sub_partition_per_mchannel                    2 # number of memory subpartition in each memory module
-gpgpu_n_mem_per_ctrlr                    2 # number of memory chips per memory controller
-gpgpu_memlatency_stat                   14 # track and display latency statistics 0x2 enables MC, 0x4 enables queue logs
-gpgpu_frfcfs_dram_sched_queue_size                   16 # 0 = unlimited (default); # entries per chip
-gpgpu_dram_return_queue_size                  116 # 0 = unlimited (default); # entries per chip
-gpgpu_dram_buswidth                    4 # default = 4 bytes (8 bytes per cycle at DDR)
-gpgpu_dram_burst_length                    8 # Burst length of each DRAM request (default = 4 data bus cycle)
-dram_data_command_freq_ratio                    4 # Frequency ratio between DRAM data bus and command bus (default = 2 times, i.e. DDR)
-gpgpu_dram_timing_opt nbk=16:CCD=2:RRD=6:RCD=12:RAS=28:RP=12:RC=40: CL=12:WL=4:CDLR=5:WR=12:nbkgrp=4:CCDL=3:RTPL=2 # DRAM timing parameters = {nbk:tCCD:tRRD:tRCD:tRAS:tRP:tRC:CL:WL:tCDLR:tWR:nbkgrp:tCCDL:tRTPL}
-rop_latency                          120 # ROP queue latency (default 85)
-dram_latency                         100 # DRAM latency (default 30)
-gpgpu_mem_addr_mapping dramid@8;00000000.00000000.00000000.00000000.0000RRRR.RRRRRRRR.BBBCCCCB.CCSSSSSS # mapping memory address to dram model {dramid@<start bit>;<memory address map>}
-gpgpu_mem_addr_test                    0 # run sweep test to check address mapping for aliased address
-gpgpu_mem_address_mask                    1 # 0 = old addressing mask, 1 = new addressing mask, 2 = new add. mask + flipped bank sel and chip sel bits
-gpuwattch_xml_file  gpuwattch_gtx480.xml # GPUWattch XML file
-power_simulation_enabled                    1 # Turn on power simulator (1=On, 0=Off)
-power_per_cycle_dump                    0 # Dump detailed power output each cycle
-power_trace_enabled                    0 # produce a file for the power trace (1=On, 0=Off)
-power_trace_zlevel                     6 # Compression level of the power trace output log (0=no comp, 9=highest)
-steady_power_levels_enabled                    0 # produce a file for the steady power levels (1=On, 0=Off)
-steady_state_definition                  8:4 # allowed deviation:number of samples
-gpgpu_max_cycle                        0 # terminates gpu simulation early (0 = no limit)
-gpgpu_max_insn                         0 # terminates gpu simulation early (0 = no limit)
-gpgpu_max_cta                          0 # terminates gpu simulation early (0 = no limit)
-gpgpu_runtime_stat                   500 # display runtime statistics such as dram utilization {<freq>:<flag>}
-liveness_message_freq                    1 # Minimum number of seconds between simulation liveness messages (0 = always print)
-gpgpu_flush_l1_cache                    0 # Flush L1 cache at the end of each kernel call
-gpgpu_flush_l2_cache                    0 # Flush L2 cache at the end of each kernel call
-gpgpu_deadlock_detect                    1 # Stop the simulation at deadlock (1=on (default), 0=off)
-gpgpu_ptx_instruction_classification                    0 # if enabled will classify ptx instruction types per kernel (Max 255 kernels now)
-gpgpu_ptx_sim_mode                     0 # Select between Performance (default) or Functional simulation (1)
-gpgpu_clock_domains 700.0:700.0:700.0:924.0 # Clock Domain Frequencies in MhZ {<Core Clock>:<ICNT Clock>:<L2 Clock>:<DRAM Clock>}
-gpgpu_max_concurrent_kernel                    8 # maximum kernels that can run concurrently on GPU
-gpgpu_cflog_interval                    0 # Interval between each snapshot in control flow logger
-visualizer_enabled                     0 # Turn on visualizer output (1=On, 0=Off)
-visualizer_outputfile                 NULL # Specifies the output log file for visualizer
-visualizer_zlevel                      6 # Compression level of the visualizer output log (0=no comp, 9=highest)
-trace_enabled                          0 # Turn on traces
-trace_components                    none # comma seperated list of traces to enable. Complete list found in trace_streams.tup. Default none
-trace_sampling_core                    0 # The core which is printed using CORE_DPRINTF. Default 0
-trace_sampling_memory_partition                   -1 # The memory partition which is printed using MEMPART_DPRINTF. Default -1 (i.e. all)
-enable_ptx_file_line_stats                    1 # Turn on PTX source line statistic profiling. (1 = On)
-ptx_line_stats_filename gpgpu_inst_stats.txt # Output file for PTX source line statistics.
-save_embedded_ptx                      0 # saves ptx files embedded in binary as <n>.ptx
-keep                                   0 # keep intermediate files created by GPGPU-Sim when interfacing with external programs
-gpgpu_ptx_save_converted_ptxplus                    0 # Saved converted ptxplus to a file
-ptx_opcode_latency_int         4,13,4,5,145 # Opcode latencies for integers <ADD,MAX,MUL,MAD,DIV>Default 1,1,19,25,145
-ptx_opcode_latency_fp          4,13,4,5,39 # Opcode latencies for single precision floating points <ADD,MAX,MUL,MAD,DIV>Default 1,1,1,1,30
-ptx_opcode_latency_dp         8,19,8,8,330 # Opcode latencies for double precision floating points <ADD,MAX,MUL,MAD,DIV>Default 8,8,8,8,335
-ptx_opcode_initiation_int            1,2,2,1,8 # Opcode initiation intervals for integers <ADD,MAX,MUL,MAD,DIV>Default 1,1,4,4,32
-ptx_opcode_initiation_fp            1,2,1,1,4 # Opcode initiation intervals for single precision floating points <ADD,MAX,MUL,MAD,DIV>Default 1,1,1,1,5
-ptx_opcode_initiation_dp         8,16,8,8,130 # Opcode initiation intervals for double precision floating points <ADD,MAX,MUL,MAD,DIV>Default 8,8,8,8,130
DRAM Timing Options:
nbk                                    16 # number of banks
CCD                                     2 # column to column delay
RRD                                     6 # minimal delay between activation of rows in different banks
RCD                                    12 # row to column delay
RAS                                    28 # time needed to activate row
RP                                     12 # time needed to precharge (deactivate) row
RC                                     40 # row cycle time
CDLR                                    5 # switching from write to read (changes tWTR)
WR                                     12 # last data-in to row precharge
CL                                     12 # CAS latency
WL                                      4 # Write latency
nbkgrp                                  4 # number of bank groups
CCDL                                    3 # column to column delay between accesses to different bank groups
RTPL                                    2 # read to precharge delay between accesses to different bank groups
Total number of memory sub partition = 12
addr_dec_mask[CHIP]  = 0000000000000000 	high:64 low:0
addr_dec_mask[BK]    = 000000000000e100 	high:16 low:8
addr_dec_mask[ROW]   = 000000000fff0000 	high:28 low:16
addr_dec_mask[COL]   = 0000000000001eff 	high:13 low:0
addr_dec_mask[BURST] = 000000000000003f 	high:6 low:0
sub_partition_id_mask = 0000000000000100
GPGPU-Sim uArch: clock freqs: 700000000.000000:700000000.000000:700000000.000000:924000000.000000
GPGPU-Sim uArch: clock periods: 0.00000000142857142857:0.00000000142857142857:0.00000000142857142857:0.00000000108225108225
*** Initializing Memory Statistics ***
GPGPU-Sim uArch: interconnect node map (shaderID+MemID to icntID)
GPGPU-Sim uArch: Memory nodes ID start from index: 15
GPGPU-Sim uArch:    0   1   2   3   4
GPGPU-Sim uArch:    5   6   7   8   9
GPGPU-Sim uArch:   10  11  12  13  14
GPGPU-Sim uArch:   15  16  17  18  19
GPGPU-Sim uArch:   20  21  22  23  24
GPGPU-Sim uArch:   25  26
GPGPU-Sim uArch: interconnect node reverse map (icntID to shaderID+MemID)
GPGPU-Sim uArch: Memory nodes start from ID: 15
GPGPU-Sim uArch:    0   1   2   3   4
GPGPU-Sim uArch:    5   6   7   8   9
GPGPU-Sim uArch:   10  11  12  13  14
GPGPU-Sim uArch:   15  16  17  18  19
GPGPU-Sim uArch:   20  21  22  23  24
GPGPU-Sim uArch:   25  26
baa34152d8f8621bdfd81a71b848c7b0  /home/scratch/adwait/applications/benchmarks/CUDA/CP/gpgpu_ptx_sim__CP
GPGPU-Sim uArch: performance model initialization complete.
GPGPU-Sim PTX: __cudaRegisterFatBinary, fat_cubin_handle = 1, filename=src/cuda_short/cuenergy_pre8_coalesce.cu
self exe links to: /home/scratch/adwait/applications/benchmarks/CUDA/CP/gpgpu_ptx_sim__CP
Running md5sum using "md5sum /home/scratch/adwait/applications/benchmarks/CUDA/CP/gpgpu_ptx_sim__CP "
Running cuobjdump using "$CUDA_INSTALL_PATH/bin/cuobjdump -ptx -elf -sass /home/scratch/adwait/applications/benchmarks/CUDA/CP/gpgpu_ptx_sim__CP > _cuobjdump_complete_output_RBhYsS"
Parsing file _cuobjdump_complete_output_RBhYsS
######### cuobjdump parser ########
## Adding new section PTX
Adding ptx filename: _cuobjdump_1.ptx
Adding arch: sm_10
Adding identifier: src/cuda_short/main.cu
## Adding new section ELF
Adding arch: sm_10
Adding identifier: src/cuda_short/main.cu
## Adding new section PTX
Adding ptx filename: _cuobjdump_2.ptx
Adding arch: sm_10
Adding identifier: src/cuda_short/cuenergy_pre8_coalesce.cu
## Adding new section ELF
Adding arch: sm_10
Adding identifier: src/cuda_short/cuenergy_pre8_coalesce.cu
Done parsing!!!
GPGPU-Sim PTX: __cudaRegisterFunction _Z7cenergyifPf : hostFun 0x0x401ec1, fat_cubin_handle = 1
GPGPU-Sim PTX: allocating constant region for "atominfo" from 0x100 to 0xfb00 (global memory space) 1
GPGPU-Sim PTX: instruction assembly for function '_Z7cenergyifPf'...   done.
GPGPU-Sim PTX: finding reconvergence points for '_Z7cenergyifPf'...
GPGPU-Sim PTX: Finding dominators for '_Z7cenergyifPf'...
GPGPU-Sim PTX: Finding immediate dominators for '_Z7cenergyifPf'...
GPGPU-Sim PTX: Finding postdominators for '_Z7cenergyifPf'...
GPGPU-Sim PTX: Finding immediate postdominators for '_Z7cenergyifPf'...
GPGPU-Sim PTX: pre-decoding instructions for '_Z7cenergyifPf'...
GPGPU-Sim PTX: reconvergence points for _Z7cenergyifPf...
GPGPU-Sim PTX:  1 (potential) branch divergence @  PC=0x048 (_1.ptx:71) @%p1 bra $Lt_0_2306;
GPGPU-Sim PTX:    immediate post dominator      @  PC=0x1c0 (_1.ptx:127) cvt.u32.u16 %r20, %nctaid.x;
GPGPU-Sim PTX:  2 (potential) branch divergence @  PC=0x178 (_1.ptx:115) @%p2 bra $Lt_0_1794;
GPGPU-Sim PTX:    immediate post dominator      @  PC=0x180 (_1.ptx:116) bra.uni $Lt_0_1282;
GPGPU-Sim PTX:  3 (potential) branch divergence @  PC=0x180 (_1.ptx:116) bra.uni $Lt_0_1282;
GPGPU-Sim PTX:    immediate post dominator      @  PC=0x1c0 (_1.ptx:127) cvt.u32.u16 %r20, %nctaid.x;
GPGPU-Sim PTX: ... end of reconvergence points for _Z7cenergyifPf
GPGPU-Sim PTX: ... done pre-decoding instructions for '_Z7cenergyifPf'.
GPGPU-Sim PTX: finished parsing EMBEDDED .ptx file _1.ptx
Adding _cuobjdump_2.ptx with cubin handle 1
GPGPU-Sim PTX: extracting embedded .ptx to temporary file "_ptx_o8aM1k"
Running: cat _ptx_o8aM1k | sed 's/.version 1.5/.version 1.4/' | sed 's/, texmode_independent//' | sed 's/\(\.extern \.const\[1\] .b8 \w\+\)\[\]/\1\[1\]/' | sed 's/const\[.\]/const\[0\]/g' > _ptx2_7JrXAN
GPGPU-Sim PTX: generating ptxinfo using "$CUDA_INSTALL_PATH/bin/ptxas --gpu-name=sm_20 -v _ptx2_7JrXAN --output-file  /dev/null 2> _ptx_o8aM1kinfo"
GPGPU-Sim PTX: Kernel '_Z7cenergyifPf' : regs=15, lmem=0, smem=0, cmem=64048
GPGPU-Sim PTX: removing ptxinfo using "rm -f _ptx_o8aM1k _ptx2_7JrXAN _ptx_o8aM1kinfo"
GPGPU-Sim PTX: loading globals with explicit initializers... 
GPGPU-Sim PTX: finished loading globals (0 bytes total).
GPGPU-Sim PTX: loading constants with explicit initializers...  done.
GPGPU-Sim PTX: __cudaRegisterVar: hostVar = 0x516400; deviceAddress = atominfo; deviceName = atominfo
GPGPU-Sim PTX: __cudaRegisterVar: Registering const memory space of 64000 bytes
GPGPU-Sim PTX registering constant atominfo (64000 bytes) to name mapping
GPGPU-Sim PTX: __cudaRegisterFatBinary, fat_cubin_handle = 2, filename=src/cuda_short/main.cu
CUDA accelerated coulombic potential microbenchmark
Original version by John E. Stone <johns@ks.uiuc.edu>
This version maintained by Chris Rodrigues
GPGPU-Sim PTX: cudaMemcpyToSymbol: symbol = 0x516400
GPGPU-Sim PTX: starting gpgpu_ptx_sim_memcpy_symbol with hostVar 0x0x516400
GPGPU-Sim PTX: gpgpu_ptx_sim_memcpy_symbol: Found PTX symbol w/ hostVar=0x516400
GPGPU-Sim PTX: gpgpu_ptx_sim_memcpy_symbol: copying const memory 3200 bytes  to  symbol atominfo+0 @0x100 ...

GPGPU-Sim PTX: cudaLaunch for 0x0x401ec1 (mode=performance simulation) on stream 0
GPGPU-Sim PTX: pushing kernel '_Z7cenergyifPf' to stream 0, gridDim= (8,32,1) blockDim = (16,8,1) 
kernel '_Z7cenergyifPf' transfer to GPU hardware scheduler
GPGPU-Sim uArch: Shader 1 bind to kernel 1 '_Z7cenergyifPf'
GPGPU-Sim uArch: CTA/core = 8, limited by: cta_limit
GPGPU-Sim uArch: core:  1, cta: 0 initialized @(1,0)
GPGPU-Sim uArch: Shader 2 bind to kernel 1 '_Z7cenergyifPf'
GPGPU-Sim uArch: core:  2, cta: 0 initialized @(1,0)
GPGPU-Sim uArch: Shader 3 bind to kernel 1 '_Z7cenergyifPf'
GPGPU-Sim uArch: core:  3, cta: 0 initialized @(1,0)
GPGPU-Sim uArch: Shader 4 bind to kernel 1 '_Z7cenergyifPf'
GPGPU-Sim uArch: core:  4, cta: 0 initialized @(1,0)
GPGPU-Sim uArch: Shader 5 bind to kernel 1 '_Z7cenergyifPf'
GPGPU-Sim uArch: core:  5, cta: 0 initialized @(1,0)
GPGPU-Sim uArch: Shader 6 bind to kernel 1 '_Z7cenergyifPf'
GPGPU-Sim uArch: core:  6, cta: 0 initialized @(1,0)
GPGPU-Sim uArch: Shader 7 bind to kernel 1 '_Z7cenergyifPf'
GPGPU-Sim uArch: core:  7, cta: 0 initialized @(1,0)
GPGPU-Sim uArch: Shader 8 bind to kernel 1 '_Z7cenergyifPf'
GPGPU-Sim uArch: core:  8, cta: 0 initialized @(1,0)
GPGPU-Sim uArch: Shader 9 bind to kernel 1 '_Z7cenergyifPf'
GPGPU-Sim uArch: core:  9, cta: 0 initialized @(1,0)
GPGPU-Sim uArch: Shader 10 bind to kernel 1 '_Z7cenergyifPf'
GPGPU-Sim uArch: core: 10, cta: 0 initialized @(1,0)
GPGPU-Sim uArch: Shader 11 bind to kernel 1 '_Z7cenergyifPf'
GPGPU-Sim uArch: core: 11, cta: 0 initialized @(1,0)
GPGPU-Sim uArch: Shader 12 bind to kernel 1 '_Z7cenergyifPf'
GPGPU-Sim uArch: core: 12, cta: 0 initialized @(1,0)
GPGPU-Sim uArch: Shader 13 bind to kernel 1 '_Z7cenergyifPf'
GPGPU-Sim uArch: core: 13, cta: 0 initialized @(1,0)
GPGPU-Sim uArch: Shader 14 bind to kernel 1 '_Z7cenergyifPf'
GPGPU-Sim uArch: core: 14, cta: 0 initialized @(1,0)
GPGPU-Sim uArch: Shader 0 bind to kernel 1 '_Z7cenergyifPf'
GPGPU-Sim uArch: core:  0, cta: 0 initialized @(1,0)
GPGPU-Sim uArch: core:  1, cta: 1 initialized @(2,0)
GPGPU-Sim uArch: core:  2, cta: 1 initialized @(2,0)
GPGPU-Sim uArch: core:  3, cta: 1 initialized @(2,0)
GPGPU-Sim uArch: core:  4, cta: 1 initialized @(2,0)
GPGPU-Sim uArch: core:  5, cta: 1 initialized @(2,0)
GPGPU-Sim uArch: core:  6, cta: 1 initialized @(2,0)
GPGPU-Sim uArch: core:  7, cta: 1 initialized @(2,0)
GPGPU-Sim uArch: core:  8, cta: 1 initialized @(2,0)
GPGPU-Sim uArch: core:  9, cta: 1 initialized @(2,0)
GPGPU-Sim uArch: core: 10, cta: 1 initialized @(2,0)
GPGPU-Sim uArch: core: 11, cta: 1 initialized @(2,0)
GPGPU-Sim uArch: core: 12, cta: 1 initialized @(2,0)
GPGPU-Sim uArch: core: 13, cta: 1 initialized @(2,0)
GPGPU-Sim uArch: core: 14, cta: 1 initialized @(2,0)
GPGPU-Sim uArch: core:  0, cta: 1 initialized @(2,0)
GPGPU-Sim uArch: core:  1, cta: 2 initialized @(3,0)
GPGPU-Sim uArch: core:  2, cta: 2 initialized @(3,0)
GPGPU-Sim uArch: core:  3, cta: 2 initialized @(3,0)
GPGPU-Sim uArch: core:  4, cta: 2 initialized @(3,0)
GPGPU-Sim uArch: core:  5, cta: 2 initialized @(3,0)
GPGPU-Sim uArch: core:  6, cta: 2 initialized @(3,0)
GPGPU-Sim uArch: core:  7, cta: 2 initialized @(3,0)
GPGPU-Sim uArch: core:  8, cta: 2 initialized @(3,0)
GPGPU-Sim uArch: core:  9, cta: 2 initialized @(3,0)
GPGPU-Sim uArch: core: 10, cta: 2 initialized @(3,0)
GPGPU-Sim uArch: core: 11, cta: 2 initialized @(3,0)
GPGPU-Sim uArch: core: 12, cta: 2 initialized @(3,0)
GPGPU-Sim uArch: core: 13, cta: 2 initialized @(3,0)
GPGPU-Sim uArch: core: 14, cta: 2 initialized @(3,0)
GPGPU-Sim uArch: core:  0, cta: 2 initialized @(3,0)
GPGPU-Sim uArch: core:  1, cta: 3 initialized @(4,0)
GPGPU-Sim uArch: core:  2, cta: 3 initialized @(4,0)
GPGPU-Sim uArch: core:  3, cta: 3 initialized @(4,0)
GPGPU-Sim uArch: core:  4, cta: 3 initialized @(4,0)
GPGPU-Sim uArch: core:  5, cta: 3 initialized @(4,0)
GPGPU-Sim uArch: core:  6, cta: 3 initialized @(4,0)
GPGPU-Sim uArch: core:  7, cta: 3 initialized @(4,0)
GPGPU-Sim uArch: core:  8, cta: 3 initialized @(4,0)
GPGPU-Sim uArch: core:  9, cta: 3 initialized @(4,0)
GPGPU-Sim uArch: core: 10, cta: 3 initialized @(4,0)
GPGPU-Sim uArch: core: 11, cta: 3 initialized @(4,0)
GPGPU-Sim uArch: core: 12, cta: 3 initialized @(4,0)
GPGPU-Sim uArch: core: 13, cta: 3 initialized @(4,0)
GPGPU-Sim uArch: core: 14, cta: 3 initialized @(4,0)
GPGPU-Sim uArch: core:  0, cta: 3 initialized @(4,0)
GPGPU-Sim uArch: core:  1, cta: 4 initialized @(5,0)
GPGPU-Sim uArch: core:  2, cta: 4 initialized @(5,0)
GPGPU-Sim uArch: core:  3, cta: 4 initialized @(5,0)
GPGPU-Sim uArch: core:  4, cta: 4 initialized @(5,0)
GPGPU-Sim uArch: core:  5, cta: 4 initialized @(5,0)
GPGPU-Sim uArch: core:  6, cta: 4 initialized @(5,0)
GPGPU-Sim uArch: core:  7, cta: 4 initialized @(5,0)
GPGPU-Sim uArch: core:  8, cta: 4 initialized @(5,0)
GPGPU-Sim uArch: core:  9, cta: 4 initialized @(5,0)
GPGPU-Sim uArch: core: 10, cta: 4 initialized @(5,0)
GPGPU-Sim uArch: core: 11, cta: 4 initialized @(5,0)
GPGPU-Sim uArch: core: 12, cta: 4 initialized @(5,0)
GPGPU-Sim uArch: core: 13, cta: 4 initialized @(5,0)
GPGPU-Sim uArch: core: 14, cta: 4 initialized @(5,0)
GPGPU-Sim uArch: core:  0, cta: 4 initialized @(5,0)
GPGPU-Sim uArch: core:  1, cta: 5 initialized @(6,0)
GPGPU-Sim uArch: core:  2, cta: 5 initialized @(6,0)
GPGPU-Sim uArch: core:  3, cta: 5 initialized @(6,0)
GPGPU-Sim uArch: core:  4, cta: 5 initialized @(6,0)
GPGPU-Sim uArch: core:  5, cta: 5 initialized @(6,0)
GPGPU-Sim uArch: core:  6, cta: 5 initialized @(6,0)
GPGPU-Sim uArch: core:  7, cta: 5 initialized @(6,0)
GPGPU-Sim uArch: core:  8, cta: 5 initialized @(6,0)
GPGPU-Sim uArch: core:  9, cta: 5 initialized @(6,0)
GPGPU-Sim uArch: core: 10, cta: 5 initialized @(6,0)
GPGPU-Sim uArch: core: 11, cta: 5 initialized @(6,0)
GPGPU-Sim uArch: core: 12, cta: 5 initialized @(6,0)
GPGPU-Sim uArch: core: 13, cta: 5 initialized @(6,0)
GPGPU-Sim uArch: core: 14, cta: 5 initialized @(6,0)
GPGPU-Sim uArch: core:  0, cta: 5 initialized @(6,0)
GPGPU-Sim uArch: core:  1, cta: 6 initialized @(7,0)
GPGPU-Sim uArch: core:  2, cta: 6 initialized @(7,0)
GPGPU-Sim uArch: core:  3, cta: 6 initialized @(7,0)
GPGPU-Sim uArch: core:  4, cta: 6 initialized @(7,0)
GPGPU-Sim uArch: core:  5, cta: 6 initialized @(7,0)
GPGPU-Sim uArch: core:  6, cta: 6 initialized @(7,0)
GPGPU-Sim uArch: core:  7, cta: 6 initialized @(7,0)
GPGPU-Sim uArch: core:  8, cta: 6 initialized @(7,0)
GPGPU-Sim uArch: core:  9, cta: 6 initialized @(7,0)
GPGPU-Sim uArch: core: 10, cta: 6 initialized @(7,0)
GPGPU-Sim uArch: core: 11, cta: 6 initialized @(7,0)
GPGPU-Sim uArch: core: 12, cta: 6 initialized @(7,0)
GPGPU-Sim uArch: core: 13, cta: 6 initialized @(7,0)
GPGPU-Sim uArch: core: 14, cta: 6 initialized @(7,0)
GPGPU-Sim uArch: core:  0, cta: 6 initialized @(7,0)
GPGPU-Sim uArch: core:  1, cta: 7 initialized @(8,0)
GPGPU-Sim uArch: core:  2, cta: 7 initialized @(8,0)
GPGPU-Sim uArch: core:  3, cta: 7 initialized @(8,0)
GPGPU-Sim uArch: core:  4, cta: 7 initialized @(8,0)
GPGPU-Sim uArch: core:  5, cta: 7 initialized @(8,0)
GPGPU-Sim uArch: core:  6, cta: 7 initialized @(8,0)
GPGPU-Sim uArch: core:  7, cta: 7 initialized @(8,0)
GPGPU-Sim uArch: core:  8, cta: 7 initialized @(8,0)
GPGPU-Sim uArch: core:  9, cta: 7 initialized @(8,0)
GPGPU-Sim uArch: core: 10, cta: 7 initialized @(8,0)
GPGPU-Sim uArch: core: 11, cta: 7 initialized @(8,0)
GPGPU-Sim uArch: core: 12, cta: 7 initialized @(8,0)
GPGPU-Sim uArch: core: 13, cta: 7 initialized @(8,0)
GPGPU-Sim uArch: core: 14, cta: 7 initialized @(8,0)
GPGPU-Sim uArch: core:  0, cta: 7 initialized @(8,0)
GPGPU-Sim PTX: 100000 instructions simulated : ctaid=(5,1,0) tid=(15,3,0)
GPGPU-Sim uArch: cycles simulated: 500  inst.: 107520 (ipc=215.0) sim_rate=107520 (inst/sec) elapsed = 0:0:00:01 / Tue Apr 16 16:48:47 2019
GPGPU-Sim PTX: 200000 instructions simulated : ctaid=(6,10,0) tid=(15,5,0)
GPGPU-Sim PTX: 300000 instructions simulated : ctaid=(1,2,0) tid=(15,3,0)
GPGPU-Sim PTX: 400000 instructions simulated : ctaid=(2,1,0) tid=(15,7,0)
GPGPU-Sim uArch: cycles simulated: 1500  inst.: 454912 (ipc=303.3) sim_rate=227456 (inst/sec) elapsed = 0:0:00:02 / Tue Apr 16 16:48:48 2019
GPGPU-Sim PTX: 500000 instructions simulated : ctaid=(4,12,0) tid=(15,1,0)
GPGPU-Sim PTX: 600000 instructions simulated : ctaid=(3,13,0) tid=(15,1,0)
GPGPU-Sim PTX: 700000 instructions simulated : ctaid=(1,1,0) tid=(15,5,0)
GPGPU-Sim uArch: cycles simulated: 2000  inst.: 687360 (ipc=343.7) sim_rate=229120 (inst/sec) elapsed = 0:0:00:03 / Tue Apr 16 16:48:49 2019
GPGPU-Sim PTX: 800000 instructions simulated : ctaid=(0,8,0) tid=(15,7,0)
GPGPU-Sim PTX: 900000 instructions simulated : ctaid=(6,4,0) tid=(15,5,0)
GPGPU-Sim PTX: 1000000 instructions simulated : ctaid=(2,6,0) tid=(15,3,0)
GPGPU-Sim uArch: cycles simulated: 2500  inst.: 1009856 (ipc=403.9) sim_rate=252464 (inst/sec) elapsed = 0:0:00:04 / Tue Apr 16 16:48:50 2019
GPGPU-Sim PTX: 1100000 instructions simulated : ctaid=(6,3,0) tid=(15,3,0)
GPGPU-Sim PTX: 1200000 instructions simulated : ctaid=(1,9,0) tid=(15,7,0)
GPGPU-Sim PTX: 1300000 instructions simulated : ctaid=(2,7,0) tid=(15,5,0)
GPGPU-Sim uArch: cycles simulated: 3000  inst.: 1284672 (ipc=428.2) sim_rate=256934 (inst/sec) elapsed = 0:0:00:05 / Tue Apr 16 16:48:51 2019
GPGPU-Sim PTX: 1400000 instructions simulated : ctaid=(7,0,0) tid=(15,3,0)
GPGPU-Sim PTX: 1500000 instructions simulated : ctaid=(4,1,0) tid=(15,5,0)
GPGPU-Sim PTX: 1600000 instructions simulated : ctaid=(1,9,0) tid=(15,7,0)
GPGPU-Sim uArch: cycles simulated: 3500  inst.: 1579296 (ipc=451.2) sim_rate=263216 (inst/sec) elapsed = 0:0:00:06 / Tue Apr 16 16:48:52 2019
GPGPU-Sim PTX: 1700000 instructions simulated : ctaid=(5,10,0) tid=(15,5,0)
GPGPU-Sim PTX: 1800000 instructions simulated : ctaid=(7,3,0) tid=(15,1,0)
GPGPU-Sim PTX: 1900000 instructions simulated : ctaid=(7,6,0) tid=(15,1,0)
GPGPU-Sim PTX: 2000000 instructions simulated : ctaid=(6,6,0) tid=(15,1,0)
GPGPU-Sim PTX: 2100000 instructions simulated : ctaid=(6,3,0) tid=(15,3,0)
GPGPU-Sim uArch: cycles simulated: 4500  inst.: 2159648 (ipc=479.9) sim_rate=308521 (inst/sec) elapsed = 0:0:00:07 / Tue Apr 16 16:48:53 2019
GPGPU-Sim PTX: 2200000 instructions simulated : ctaid=(1,9,0) tid=(15,1,0)
GPGPU-Sim PTX: 2300000 instructions simulated : ctaid=(3,7,0) tid=(15,5,0)
GPGPU-Sim PTX: 2400000 instructions simulated : ctaid=(2,2,0) tid=(15,3,0)
GPGPU-Sim uArch: cycles simulated: 5000  inst.: 2424960 (ipc=485.0) sim_rate=303120 (inst/sec) elapsed = 0:0:00:08 / Tue Apr 16 16:48:54 2019
GPGPU-Sim PTX: 2500000 instructions simulated : ctaid=(2,5,0) tid=(15,5,0)
GPGPU-Sim PTX: 2600000 instructions simulated : ctaid=(3,3,0) tid=(15,1,0)
GPGPU-Sim PTX: 2700000 instructions simulated : ctaid=(5,8,0) tid=(15,3,0)
GPGPU-Sim PTX: 2800000 instructions simulated : ctaid=(2,12,0) tid=(15,1,0)
GPGPU-Sim PTX: 2900000 instructions simulated : ctaid=(7,11,0) tid=(15,5,0)
GPGPU-Sim PTX: 3000000 instructions simulated : ctaid=(6,3,0) tid=(15,1,0)
GPGPU-Sim uArch: cycles simulated: 6000  inst.: 2996000 (ipc=499.3) sim_rate=332888 (inst/sec) elapsed = 0:0:00:09 / Tue Apr 16 16:48:55 2019
GPGPU-Sim PTX: 3100000 instructions simulated : ctaid=(5,6,0) tid=(15,5,0)
GPGPU-Sim PTX: 3200000 instructions simulated : ctaid=(7,6,0) tid=(15,5,0)
GPGPU-Sim PTX: 3300000 instructions simulated : ctaid=(1,8,0) tid=(15,1,0)
GPGPU-Sim PTX: 3400000 instructions simulated : ctaid=(5,0,0) tid=(15,7,0)
GPGPU-Sim PTX: 3500000 instructions simulated : ctaid=(4,2,0) tid=(15,1,0)
GPGPU-Sim uArch: cycles simulated: 7000  inst.: 3553152 (ipc=507.6) sim_rate=355315 (inst/sec) elapsed = 0:0:00:10 / Tue Apr 16 16:48:56 2019
GPGPU-Sim PTX: 3600000 instructions simulated : ctaid=(0,5,0) tid=(15,7,0)
GPGPU-Sim PTX: 3700000 instructions simulated : ctaid=(4,11,0) tid=(15,1,0)
GPGPU-Sim PTX: 3800000 instructions simulated : ctaid=(6,1,0) tid=(15,1,0)
GPGPU-Sim PTX: 3900000 instructions simulated : ctaid=(5,10,0) tid=(15,3,0)
GPGPU-Sim PTX: 4000000 instructions simulated : ctaid=(3,8,0) tid=(15,5,0)
GPGPU-Sim PTX: 4100000 instructions simulated : ctaid=(0,9,0) tid=(15,1,0)
GPGPU-Sim uArch: cycles simulated: 8000  inst.: 4141536 (ipc=517.7) sim_rate=376503 (inst/sec) elapsed = 0:0:00:11 / Tue Apr 16 16:48:57 2019
GPGPU-Sim PTX: 4200000 instructions simulated : ctaid=(6,5,0) tid=(15,1,0)
GPGPU-Sim PTX: 4300000 instructions simulated : ctaid=(3,0,0) tid=(15,5,0)
GPGPU-Sim PTX: 4400000 instructions simulated : ctaid=(7,7,0) tid=(15,7,0)
GPGPU-Sim PTX: 4500000 instructions simulated : ctaid=(6,9,0) tid=(15,5,0)
GPGPU-Sim PTX: 4600000 instructions simulated : ctaid=(7,3,0) tid=(15,7,0)
GPGPU-Sim PTX: 4700000 instructions simulated : ctaid=(1,0,0) tid=(15,1,0)
GPGPU-Sim uArch: cycles simulated: 9000  inst.: 4705632 (ipc=522.8) sim_rate=361971 (inst/sec) elapsed = 0:0:00:13 / Tue Apr 16 16:48:59 2019
GPGPU-Sim PTX: 4800000 instructions simulated : ctaid=(5,8,0) tid=(15,5,0)
GPGPU-Sim PTX: 4900000 instructions simulated : ctaid=(7,3,0) tid=(15,5,0)
GPGPU-Sim PTX: 5000000 instructions simulated : ctaid=(3,0,0) tid=(15,3,0)
GPGPU-Sim PTX: 5100000 instructions simulated : ctaid=(7,12,0) tid=(15,1,0)
GPGPU-Sim PTX: 5200000 instructions simulated : ctaid=(1,8,0) tid=(15,5,0)
GPGPU-Sim PTX: 5300000 instructions simulated : ctaid=(0,7,0) tid=(15,5,0)
GPGPU-Sim uArch: cycles simulated: 10000  inst.: 5276160 (ipc=527.6) sim_rate=376868 (inst/sec) elapsed = 0:0:00:14 / Tue Apr 16 16:49:00 2019
GPGPU-Sim PTX: 5400000 instructions simulated : ctaid=(7,11,0) tid=(15,1,0)
GPGPU-Sim PTX: 5500000 instructions simulated : ctaid=(6,0,0) tid=(15,5,0)
GPGPU-Sim uArch: cycles simulated: 10500  inst.: 5572512 (ipc=530.7) sim_rate=371500 (inst/sec) elapsed = 0:0:00:15 / Tue Apr 16 16:49:01 2019
GPGPU-Sim PTX: 5600000 instructions simulated : ctaid=(4,4,0) tid=(15,7,0)
GPGPU-Sim PTX: 5700000 instructions simulated : ctaid=(7,7,0) tid=(15,1,0)
GPGPU-Sim PTX: 5800000 instructions simulated : ctaid=(3,0,0) tid=(15,3,0)
GPGPU-Sim uArch: cycles simulated: 11000  inst.: 5837696 (ipc=530.7) sim_rate=364856 (inst/sec) elapsed = 0:0:00:16 / Tue Apr 16 16:49:02 2019
GPGPU-Sim PTX: 5900000 instructions simulated : ctaid=(5,7,0) tid=(15,1,0)
GPGPU-Sim PTX: 6000000 instructions simulated : ctaid=(2,12,0) tid=(15,3,0)
GPGPU-Sim PTX: 6100000 instructions simulated : ctaid=(7,6,0) tid=(15,5,0)
GPGPU-Sim PTX: 6200000 instructions simulated : ctaid=(2,2,0) tid=(15,3,0)
GPGPU-Sim PTX: 6300000 instructions simulated : ctaid=(1,5,0) tid=(15,5,0)
GPGPU-Sim PTX: 6400000 instructions simulated : ctaid=(2,2,0) tid=(15,1,0)
GPGPU-Sim uArch: cycles simulated: 12000  inst.: 6425632 (ipc=535.5) sim_rate=377978 (inst/sec) elapsed = 0:0:00:17 / Tue Apr 16 16:49:03 2019
GPGPU-Sim PTX: 6500000 instructions simulated : ctaid=(2,1,0) tid=(15,1,0)
GPGPU-Sim PTX: 6600000 instructions simulated : ctaid=(5,1,0) tid=(15,7,0)
GPGPU-Sim PTX: 6700000 instructions simulated : ctaid=(7,12,0) tid=(15,3,0)
GPGPU-Sim PTX: 6800000 instructions simulated : ctaid=(4,0,0) tid=(15,7,0)
GPGPU-Sim PTX: 6900000 instructions simulated : ctaid=(4,8,0) tid=(15,5,0)
GPGPU-Sim PTX: 7000000 instructions simulated : ctaid=(5,3,0) tid=(15,7,0)
GPGPU-Sim uArch: cycles simulated: 13000  inst.: 6988384 (ipc=537.6) sim_rate=388243 (inst/sec) elapsed = 0:0:00:18 / Tue Apr 16 16:49:04 2019
GPGPU-Sim PTX: 7100000 instructions simulated : ctaid=(5,0,0) tid=(15,5,0)
GPGPU-Sim PTX: 7200000 instructions simulated : ctaid=(3,2,0) tid=(15,5,0)
GPGPU-Sim PTX: 7300000 instructions simulated : ctaid=(3,10,0) tid=(15,3,0)
GPGPU-Sim PTX: 7400000 instructions simulated : ctaid=(2,4,0) tid=(15,1,0)
GPGPU-Sim PTX: 7500000 instructions simulated : ctaid=(0,1,0) tid=(15,3,0)
GPGPU-Sim uArch: cycles simulated: 14000  inst.: 7558624 (ipc=539.9) sim_rate=397822 (inst/sec) elapsed = 0:0:00:19 / Tue Apr 16 16:49:05 2019
GPGPU-Sim PTX: 7600000 instructions simulated : ctaid=(0,3,0) tid=(15,5,0)
GPGPU-Sim PTX: 7700000 instructions simulated : ctaid=(5,10,0) tid=(15,7,0)
GPGPU-Sim PTX: 7800000 instructions simulated : ctaid=(2,6,0) tid=(15,1,0)
GPGPU-Sim PTX: 7900000 instructions simulated : ctaid=(7,10,0) tid=(15,1,0)
GPGPU-Sim PTX: 8000000 instructions simulated : ctaid=(3,6,0) tid=(15,7,0)
GPGPU-Sim PTX: 8100000 instructions simulated : ctaid=(0,4,0) tid=(15,1,0)
GPGPU-Sim uArch: cycles simulated: 15000  inst.: 8114240 (ipc=540.9) sim_rate=405712 (inst/sec) elapsed = 0:0:00:20 / Tue Apr 16 16:49:06 2019
GPGPU-Sim PTX: 8200000 instructions simulated : ctaid=(1,10,0) tid=(15,1,0)
GPGPU-Sim PTX: 8300000 instructions simulated : ctaid=(2,10,0) tid=(15,3,0)
GPGPU-Sim PTX: 8400000 instructions simulated : ctaid=(6,2,0) tid=(15,5,0)
GPGPU-Sim PTX: 8500000 instructions simulated : ctaid=(0,8,0) tid=(15,7,0)
GPGPU-Sim PTX: 8600000 instructions simulated : ctaid=(7,5,0) tid=(15,5,0)
GPGPU-Sim PTX: 8700000 instructions simulated : ctaid=(1,7,0) tid=(15,5,0)
GPGPU-Sim uArch: cycles simulated: 16000  inst.: 8696288 (ipc=543.5) sim_rate=414108 (inst/sec) elapsed = 0:0:00:21 / Tue Apr 16 16:49:07 2019
GPGPU-Sim PTX: 8800000 instructions simulated : ctaid=(6,3,0) tid=(15,3,0)
GPGPU-Sim PTX: 8900000 instructions simulated : ctaid=(7,7,0) tid=(15,7,0)
GPGPU-Sim PTX: 9000000 instructions simulated : ctaid=(4,8,0) tid=(15,3,0)
GPGPU-Sim uArch: cycles simulated: 16500  inst.: 8991424 (ipc=544.9) sim_rate=408701 (inst/sec) elapsed = 0:0:00:22 / Tue Apr 16 16:49:08 2019
GPGPU-Sim PTX: 9100000 instructions simulated : ctaid=(2,3,0) tid=(15,7,0)
GPGPU-Sim PTX: 9200000 instructions simulated : ctaid=(6,9,0) tid=(15,5,0)
GPGPU-Sim uArch: cycles simulated: 17000  inst.: 9266944 (ipc=545.1) sim_rate=402910 (inst/sec) elapsed = 0:0:00:23 / Tue Apr 16 16:49:09 2019
GPGPU-Sim PTX: 9300000 instructions simulated : ctaid=(1,3,0) tid=(15,1,0)
GPGPU-Sim PTX: 9400000 instructions simulated : ctaid=(1,10,0) tid=(15,1,0)
GPGPU-Sim PTX: 9500000 instructions simulated : ctaid=(4,3,0) tid=(15,1,0)
GPGPU-Sim PTX: 9600000 instructions simulated : ctaid=(4,10,0) tid=(15,1,0)
GPGPU-Sim PTX: 9700000 instructions simulated : ctaid=(4,9,0) tid=(15,1,0)
GPGPU-Sim PTX: 9800000 instructions simulated : ctaid=(6,5,0) tid=(15,3,0)
GPGPU-Sim uArch: cycles simulated: 18000  inst.: 9852128 (ipc=547.3) sim_rate=410505 (inst/sec) elapsed = 0:0:00:24 / Tue Apr 16 16:49:10 2019
GPGPU-Sim PTX: 9900000 instructions simulated : ctaid=(4,8,0) tid=(15,1,0)
GPGPU-Sim PTX: 10000000 instructions simulated : ctaid=(7,5,0) tid=(15,5,0)
GPGPU-Sim PTX: 10100000 instructions simulated : ctaid=(4,4,0) tid=(15,1,0)
GPGPU-Sim uArch: cycles simulated: 18500  inst.: 10121536 (ipc=547.1) sim_rate=404861 (inst/sec) elapsed = 0:0:00:25 / Tue Apr 16 16:49:11 2019
GPGPU-Sim PTX: 10200000 instructions simulated : ctaid=(1,10,0) tid=(15,3,0)
GPGPU-Sim PTX: 10300000 instructions simulated : ctaid=(7,4,0) tid=(15,1,0)
GPGPU-Sim PTX: 10400000 instructions simulated : ctaid=(6,0,0) tid=(15,1,0)
GPGPU-Sim PTX: 10500000 instructions simulated : ctaid=(7,2,0) tid=(15,1,0)
GPGPU-Sim PTX: 10600000 instructions simulated : ctaid=(5,1,0) tid=(15,1,0)
GPGPU-Sim PTX: 10700000 instructions simulated : ctaid=(3,10,0) tid=(15,1,0)
GPGPU-Sim uArch: cycles simulated: 19500  inst.: 10697472 (ipc=548.6) sim_rate=411441 (inst/sec) elapsed = 0:0:00:26 / Tue Apr 16 16:49:12 2019
GPGPU-Sim PTX: 10800000 instructions simulated : ctaid=(3,3,0) tid=(15,3,0)
GPGPU-Sim PTX: 10900000 instructions simulated : ctaid=(0,0,0) tid=(15,7,0)
GPGPU-Sim PTX: 11000000 instructions simulated : ctaid=(6,0,0) tid=(15,5,0)
GPGPU-Sim uArch: cycles simulated: 20000  inst.: 10980032 (ipc=549.0) sim_rate=406667 (inst/sec) elapsed = 0:0:00:27 / Tue Apr 16 16:49:13 2019
GPGPU-Sim PTX: 11100000 instructions simulated : ctaid=(2,6,0) tid=(15,5,0)
GPGPU-Sim PTX: 11200000 instructions simulated : ctaid=(1,6,0) tid=(15,1,0)
GPGPU-Sim uArch: cycles simulated: 20500  inst.: 11253568 (ipc=549.0) sim_rate=401913 (inst/sec) elapsed = 0:0:00:28 / Tue Apr 16 16:49:14 2019
GPGPU-Sim PTX: 11300000 instructions simulated : ctaid=(5,0,0) tid=(15,1,0)
GPGPU-Sim PTX: 11400000 instructions simulated : ctaid=(2,3,0) tid=(15,5,0)
GPGPU-Sim PTX: 11500000 instructions simulated : ctaid=(7,0,0) tid=(15,7,0)
GPGPU-Sim uArch: cycles simulated: 21000  inst.: 11554656 (ipc=550.2) sim_rate=398436 (inst/sec) elapsed = 0:0:00:29 / Tue Apr 16 16:49:15 2019
GPGPU-Sim PTX: 11600000 instructions simulated : ctaid=(5,0,0) tid=(15,1,0)
GPGPU-Sim PTX: 11700000 instructions simulated : ctaid=(4,14,0) tid=(15,1,0)
GPGPU-Sim PTX: 11800000 instructions simulated : ctaid=(0,0,0) tid=(15,5,0)
GPGPU-Sim uArch: cycles simulated: 21500  inst.: 11837952 (ipc=550.6) sim_rate=394598 (inst/sec) elapsed = 0:0:00:30 / Tue Apr 16 16:49:16 2019
GPGPU-Sim PTX: 11900000 instructions simulated : ctaid=(1,7,0) tid=(15,5,0)
GPGPU-Sim PTX: 12000000 instructions simulated : ctaid=(7,3,0) tid=(15,1,0)
GPGPU-Sim PTX: 12100000 instructions simulated : ctaid=(5,12,0) tid=(15,1,0)
GPGPU-Sim PTX: 12200000 instructions simulated : ctaid=(3,2,0) tid=(15,5,0)
GPGPU-Sim PTX: 12300000 instructions simulated : ctaid=(4,9,0) tid=(15,3,0)
GPGPU-Sim PTX: 12400000 instructions simulated : ctaid=(1,5,0) tid=(15,1,0)
GPGPU-Sim uArch: cycles simulated: 22500  inst.: 12406592 (ipc=551.4) sim_rate=400212 (inst/sec) elapsed = 0:0:00:31 / Tue Apr 16 16:49:17 2019
GPGPU-Sim PTX: 12500000 instructions simulated : ctaid=(5,0,0) tid=(15,5,0)
GPGPU-Sim PTX: 12600000 instructions simulated : ctaid=(1,1,0) tid=(15,1,0)
GPGPU-Sim PTX: 12700000 instructions simulated : ctaid=(7,11,0) tid=(15,1,0)
GPGPU-Sim PTX: 12800000 instructions simulated : ctaid=(6,8,0) tid=(15,3,0)
GPGPU-Sim PTX: 12900000 instructions simulated : ctaid=(6,12,0) tid=(15,5,0)
GPGPU-Sim uArch: cycles simulated: 23500  inst.: 12969600 (ipc=551.9) sim_rate=405300 (inst/sec) elapsed = 0:0:00:32 / Tue Apr 16 16:49:18 2019
GPGPU-Sim PTX: 13000000 instructions simulated : ctaid=(6,1,0) tid=(15,3,0)
GPGPU-Sim PTX: 13100000 instructions simulated : ctaid=(4,7,0) tid=(15,7,0)
GPGPU-Sim PTX: 13200000 instructions simulated : ctaid=(7,11,0) tid=(15,1,0)
GPGPU-Sim uArch: cycles simulated: 24000  inst.: 13258944 (ipc=552.5) sim_rate=401786 (inst/sec) elapsed = 0:0:00:33 / Tue Apr 16 16:49:19 2019
GPGPU-Sim PTX: 13300000 instructions simulated : ctaid=(6,2,0) tid=(15,1,0)
GPGPU-Sim PTX: 13400000 instructions simulated : ctaid=(2,0,0) tid=(15,1,0)
GPGPU-Sim PTX: 13500000 instructions simulated : ctaid=(0,10,0) tid=(15,1,0)
GPGPU-Sim PTX: 13600000 instructions simulated : ctaid=(6,11,0) tid=(15,1,0)
GPGPU-Sim PTX: 13700000 instructions simulated : ctaid=(7,2,0) tid=(15,5,0)
GPGPU-Sim PTX: 13800000 instructions simulated : ctaid=(4,4,0) tid=(15,3,0)
GPGPU-Sim PTX: 13900000 instructions simulated : ctaid=(5,6,0) tid=(15,1,0)
GPGPU-Sim PTX: 14000000 instructions simulated : ctaid=(1,7,0) tid=(15,5,0)
GPGPU-Sim PTX: 14100000 instructions simulated : ctaid=(6,9,0) tid=(15,1,0)
GPGPU-Sim uArch: cycles simulated: 25500  inst.: 14121056 (ipc=553.8) sim_rate=415325 (inst/sec) elapsed = 0:0:00:34 / Tue Apr 16 16:49:20 2019
GPGPU-Sim PTX: 14200000 instructions simulated : ctaid=(1,0,0) tid=(15,1,0)
GPGPU-Sim PTX: 14300000 instructions simulated : ctaid=(3,2,0) tid=(15,7,0)
GPGPU-Sim PTX: 14400000 instructions simulated : ctaid=(7,12,0) tid=(15,3,0)
GPGPU-Sim PTX: 14500000 instructions simulated : ctaid=(5,2,0) tid=(15,7,0)
GPGPU-Sim PTX: 14600000 instructions simulated : ctaid=(6,5,0) tid=(15,3,0)
GPGPU-Sim PTX: 14700000 instructions simulated : ctaid=(2,3,0) tid=(15,7,0)
GPGPU-Sim uArch: cycles simulated: 26500  inst.: 14678752 (ipc=553.9) sim_rate=419392 (inst/sec) elapsed = 0:0:00:35 / Tue Apr 16 16:49:21 2019
GPGPU-Sim PTX: 14800000 instructions simulated : ctaid=(6,11,0) tid=(15,1,0)
GPGPU-Sim PTX: 14900000 instructions simulated : ctaid=(2,7,0) tid=(15,5,0)
GPGPU-Sim PTX: 15000000 instructions simulated : ctaid=(0,10,0) tid=(15,1,0)
GPGPU-Sim PTX: 15100000 instructions simulated : ctaid=(6,6,0) tid=(15,1,0)
GPGPU-Sim PTX: 15200000 instructions simulated : ctaid=(2,8,0) tid=(15,5,0)
GPGPU-Sim uArch: cycles simulated: 27500  inst.: 15253280 (ipc=554.7) sim_rate=423702 (inst/sec) elapsed = 0:0:00:36 / Tue Apr 16 16:49:22 2019
GPGPU-Sim PTX: 15300000 instructions simulated : ctaid=(0,4,0) tid=(15,5,0)
GPGPU-Sim PTX: 15400000 instructions simulated : ctaid=(5,9,0) tid=(15,1,0)
GPGPU-Sim PTX: 15500000 instructions simulated : ctaid=(6,4,0) tid=(15,3,0)
GPGPU-Sim PTX: 15600000 instructions simulated : ctaid=(4,6,0) tid=(15,7,0)
GPGPU-Sim PTX: 15700000 instructions simulated : ctaid=(1,10,0) tid=(15,1,0)
GPGPU-Sim PTX: 15800000 instructions simulated : ctaid=(6,10,0) tid=(15,1,0)
GPGPU-Sim uArch: cycles simulated: 28500  inst.: 15808992 (ipc=554.7) sim_rate=427270 (inst/sec) elapsed = 0:0:00:37 / Tue Apr 16 16:49:23 2019
GPGPU-Sim PTX: 15900000 instructions simulated : ctaid=(2,11,0) tid=(15,3,0)
GPGPU-Sim PTX: 16000000 instructions simulated : ctaid=(6,11,0) tid=(15,3,0)
GPGPU-Sim PTX: 16100000 instructions simulated : ctaid=(4,5,0) tid=(15,5,0)
GPGPU-Sim PTX: 16200000 instructions simulated : ctaid=(6,1,0) tid=(15,1,0)
GPGPU-Sim PTX: 16300000 instructions simulated : ctaid=(4,0,0) tid=(15,3,0)
GPGPU-Sim PTX: 16400000 instructions simulated : ctaid=(0,10,0) tid=(15,5,0)
GPGPU-Sim uArch: cycles simulated: 29500  inst.: 16399104 (ipc=555.9) sim_rate=431555 (inst/sec) elapsed = 0:0:00:38 / Tue Apr 16 16:49:24 2019
GPGPU-Sim PTX: 16500000 instructions simulated : ctaid=(4,8,0) tid=(15,1,0)
GPGPU-Sim PTX: 16600000 instructions simulated : ctaid=(1,0,0) tid=(15,7,0)
GPGPU-Sim PTX: 16700000 instructions simulated : ctaid=(4,10,0) tid=(15,7,0)
GPGPU-Sim uArch: cycles simulated: 30000  inst.: 16691104 (ipc=556.4) sim_rate=427977 (inst/sec) elapsed = 0:0:00:39 / Tue Apr 16 16:49:25 2019
GPGPU-Sim PTX: 16800000 instructions simulated : ctaid=(6,3,0) tid=(15,1,0)
GPGPU-Sim PTX: 16900000 instructions simulated : ctaid=(4,2,0) tid=(15,7,0)
GPGPU-Sim PTX: 17000000 instructions simulated : ctaid=(6,4,0) tid=(15,5,0)
GPGPU-Sim PTX: 17100000 instructions simulated : ctaid=(3,1,0) tid=(15,5,0)
GPGPU-Sim PTX: 17200000 instructions simulated : ctaid=(5,1,0) tid=(15,1,0)
GPGPU-Sim uArch: cycles simulated: 31000  inst.: 17246688 (ipc=556.3) sim_rate=431167 (inst/sec) elapsed = 0:0:00:40 / Tue Apr 16 16:49:26 2019
GPGPU-Sim PTX: 17300000 instructions simulated : ctaid=(2,8,0) tid=(15,7,0)
GPGPU-Sim PTX: 17400000 instructions simulated : ctaid=(3,10,0) tid=(15,3,0)
GPGPU-Sim PTX: 17500000 instructions simulated : ctaid=(1,2,0) tid=(15,3,0)
GPGPU-Sim uArch: cycles simulated: 31500  inst.: 17531008 (ipc=556.5) sim_rate=427585 (inst/sec) elapsed = 0:0:00:41 / Tue Apr 16 16:49:27 2019
GPGPU-Sim PTX: 17600000 instructions simulated : ctaid=(0,5,0) tid=(15,3,0)
GPGPU-Sim PTX: 17700000 instructions simulated : ctaid=(2,1,0) tid=(15,1,0)
GPGPU-Sim PTX: 17800000 instructions simulated : ctaid=(1,6,0) tid=(15,1,0)
GPGPU-Sim PTX: 17900000 instructions simulated : ctaid=(6,2,0) tid=(15,1,0)
GPGPU-Sim PTX: 18000000 instructions simulated : ctaid=(4,5,0) tid=(15,7,0)
GPGPU-Sim PTX: 18100000 instructions simulated : ctaid=(4,1,0) tid=(15,7,0)
GPGPU-Sim uArch: cycles simulated: 32500  inst.: 18092928 (ipc=556.7) sim_rate=430784 (inst/sec) elapsed = 0:0:00:42 / Tue Apr 16 16:49:28 2019
GPGPU-Sim PTX: 18200000 instructions simulated : ctaid=(7,6,0) tid=(15,5,0)
GPGPU-Sim PTX: 18300000 instructions simulated : ctaid=(4,4,0) tid=(15,3,0)
GPGPU-Sim PTX: 18400000 instructions simulated : ctaid=(3,10,0) tid=(15,5,0)
GPGPU-Sim PTX: 18500000 instructions simulated : ctaid=(7,7,0) tid=(15,3,0)
GPGPU-Sim PTX: 18600000 instructions simulated : ctaid=(4,8,0) tid=(15,3,0)
GPGPU-Sim PTX: 18700000 instructions simulated : ctaid=(5,10,0) tid=(15,5,0)
GPGPU-Sim uArch: cycles simulated: 33500  inst.: 18681088 (ipc=557.6) sim_rate=434443 (inst/sec) elapsed = 0:0:00:43 / Tue Apr 16 16:49:29 2019
GPGPU-Sim PTX: 18800000 instructions simulated : ctaid=(0,0,0) tid=(15,1,0)
GPGPU-Sim PTX: 18900000 instructions simulated : ctaid=(3,11,0) tid=(15,5,0)
GPGPU-Sim PTX: 19000000 instructions simulated : ctaid=(2,9,0) tid=(15,1,0)
GPGPU-Sim PTX: 19100000 instructions simulated : ctaid=(0,0,0) tid=(15,1,0)
GPGPU-Sim PTX: 19200000 instructions simulated : ctaid=(2,8,0) tid=(15,7,0)
GPGPU-Sim uArch: cycles simulated: 34500  inst.: 19241120 (ipc=557.7) sim_rate=437298 (inst/sec) elapsed = 0:0:00:44 / Tue Apr 16 16:49:30 2019
GPGPU-Sim PTX: 19300000 instructions simulated : ctaid=(3,1,0) tid=(15,7,0)
GPGPU-Sim PTX: 19400000 instructions simulated : ctaid=(2,4,0) tid=(15,5,0)
GPGPU-Sim PTX: 19500000 instructions simulated : ctaid=(0,10,0) tid=(15,5,0)
GPGPU-Sim uArch: cycles simulated: 35000  inst.: 19533088 (ipc=558.1) sim_rate=434068 (inst/sec) elapsed = 0:0:00:45 / Tue Apr 16 16:49:31 2019
GPGPU-Sim PTX: 19600000 instructions simulated : ctaid=(1,12,0) tid=(15,1,0)
GPGPU-Sim PTX: 19700000 instructions simulated : ctaid=(0,9,0) tid=(15,3,0)
GPGPU-Sim PTX: 19800000 instructions simulated : ctaid=(6,4,0) tid=(15,5,0)
GPGPU-Sim PTX: 19900000 instructions simulated : ctaid=(7,5,0) tid=(15,3,0)
GPGPU-Sim PTX: 20000000 instructions simulated : ctaid=(1,2,0) tid=(15,1,0)
GPGPU-Sim PTX: 20100000 instructions simulated : ctaid=(6,7,0) tid=(15,5,0)
GPGPU-Sim uArch: cycles simulated: 36000  inst.: 20104960 (ipc=558.5) sim_rate=437064 (inst/sec) elapsed = 0:0:00:46 / Tue Apr 16 16:49:32 2019
GPGPU-Sim PTX: 20200000 instructions simulated : ctaid=(1,5,0) tid=(15,1,0)
GPGPU-Sim PTX: 20300000 instructions simulated : ctaid=(0,2,0) tid=(15,5,0)
GPGPU-Sim PTX: 20400000 instructions simulated : ctaid=(0,7,0) tid=(15,5,0)
GPGPU-Sim uArch: cycles simulated: 36500  inst.: 20369376 (ipc=558.1) sim_rate=433390 (inst/sec) elapsed = 0:0:00:47 / Tue Apr 16 16:49:33 2019
GPGPU-Sim PTX: 20500000 instructions simulated : ctaid=(2,5,0) tid=(15,7,0)
GPGPU-Sim PTX: 20600000 instructions simulated : ctaid=(2,6,0) tid=(15,5,0)
GPGPU-Sim PTX: 20700000 instructions simulated : ctaid=(0,6,0) tid=(15,5,0)
GPGPU-Sim PTX: 20800000 instructions simulated : ctaid=(2,1,0) tid=(15,5,0)
GPGPU-Sim PTX: 20900000 instructions simulated : ctaid=(1,11,0) tid=(15,1,0)
GPGPU-Sim uArch: cycles simulated: 37500  inst.: 20958528 (ipc=558.9) sim_rate=436636 (inst/sec) elapsed = 0:0:00:48 / Tue Apr 16 16:49:34 2019
GPGPU-Sim PTX: 21000000 instructions simulated : ctaid=(0,4,0) tid=(15,3,0)
GPGPU-Sim PTX: 21100000 instructions simulated : ctaid=(0,11,0) tid=(15,1,0)
GPGPU-Sim PTX: 21200000 instructions simulated : ctaid=(3,7,0) tid=(15,1,0)
GPGPU-Sim PTX: 21300000 instructions simulated : ctaid=(5,2,0) tid=(15,3,0)
GPGPU-Sim PTX: 21400000 instructions simulated : ctaid=(6,2,0) tid=(15,1,0)
GPGPU-Sim PTX: 21500000 instructions simulated : ctaid=(3,1,0) tid=(15,1,0)
GPGPU-Sim uArch: cycles simulated: 38500  inst.: 21520832 (ipc=559.0) sim_rate=439200 (inst/sec) elapsed = 0:0:00:49 / Tue Apr 16 16:49:35 2019
GPGPU-Sim PTX: 21600000 instructions simulated : ctaid=(2,1,0) tid=(15,1,0)
GPGPU-Sim PTX: 21700000 instructions simulated : ctaid=(3,1,0) tid=(15,1,0)
GPGPU-Sim PTX: 21800000 instructions simulated : ctaid=(2,6,0) tid=(15,7,0)
GPGPU-Sim uArch: cycles simulated: 39000  inst.: 21810912 (ipc=559.3) sim_rate=436218 (inst/sec) elapsed = 0:0:00:50 / Tue Apr 16 16:49:36 2019
GPGPU-Sim PTX: 21900000 instructions simulated : ctaid=(5,8,0) tid=(15,1,0)
GPGPU-Sim PTX: 22000000 instructions simulated : ctaid=(4,13,0) tid=(15,5,0)
GPGPU-Sim PTX: 22100000 instructions simulated : ctaid=(2,10,0) tid=(15,3,0)
GPGPU-Sim PTX: 22200000 instructions simulated : ctaid=(6,3,0) tid=(15,1,0)
GPGPU-Sim PTX: 22300000 instructions simulated : ctaid=(3,0,0) tid=(15,3,0)
GPGPU-Sim PTX: 22400000 instructions simulated : ctaid=(0,6,0) tid=(15,3,0)
GPGPU-Sim uArch: cycles simulated: 40000  inst.: 22383648 (ipc=559.6) sim_rate=438895 (inst/sec) elapsed = 0:0:00:51 / Tue Apr 16 16:49:37 2019
GPGPU-Sim PTX: 22500000 instructions simulated : ctaid=(7,0,0) tid=(15,1,0)
GPGPU-Sim PTX: 22600000 instructions simulated : ctaid=(7,2,0) tid=(15,3,0)
GPGPU-Sim PTX: 22700000 instructions simulated : ctaid=(2,7,0) tid=(15,7,0)
GPGPU-Sim PTX: 22800000 instructions simulated : ctaid=(5,8,0) tid=(15,5,0)
GPGPU-Sim PTX: 22900000 instructions simulated : ctaid=(5,3,0) tid=(15,1,0)
GPGPU-Sim uArch: cycles simulated: 41000  inst.: 22956960 (ipc=559.9) sim_rate=441480 (inst/sec) elapsed = 0:0:00:52 / Tue Apr 16 16:49:38 2019
GPGPU-Sim PTX: 23000000 instructions simulated : ctaid=(4,10,0) tid=(15,1,0)
GPGPU-Sim PTX: 23100000 instructions simulated : ctaid=(1,1,0) tid=(15,3,0)
GPGPU-Sim PTX: 23200000 instructions simulated : ctaid=(3,6,0) tid=(15,7,0)
GPGPU-Sim uArch: cycles simulated: 41500  inst.: 23235680 (ipc=559.9) sim_rate=438409 (inst/sec) elapsed = 0:0:00:53 / Tue Apr 16 16:49:39 2019
GPGPU-Sim PTX: 23300000 instructions simulated : ctaid=(1,7,0) tid=(15,1,0)
GPGPU-Sim PTX: 23400000 instructions simulated : ctaid=(6,9,0) tid=(15,1,0)
GPGPU-Sim PTX: 23500000 instructions simulated : ctaid=(1,8,0) tid=(15,5,0)
GPGPU-Sim uArch: cycles simulated: 42000  inst.: 23509728 (ipc=559.8) sim_rate=435365 (inst/sec) elapsed = 0:0:00:54 / Tue Apr 16 16:49:40 2019
GPGPU-Sim PTX: 23600000 instructions simulated : ctaid=(6,7,0) tid=(15,3,0)
GPGPU-Sim PTX: 23700000 instructions simulated : ctaid=(2,0,0) tid=(15,1,0)
GPGPU-Sim PTX: 23800000 instructions simulated : ctaid=(1,7,0) tid=(15,3,0)
GPGPU-Sim PTX: 23900000 instructions simulated : ctaid=(2,1,0) tid=(15,7,0)
GPGPU-Sim PTX: 24000000 instructions simulated : ctaid=(4,6,0) tid=(15,5,0)
GPGPU-Sim PTX: 24100000 instructions simulated : ctaid=(1,1,0) tid=(15,7,0)
GPGPU-Sim uArch: cycles simulated: 43000  inst.: 24093280 (ipc=560.3) sim_rate=438059 (inst/sec) elapsed = 0:0:00:55 / Tue Apr 16 16:49:41 2019
GPGPU-Sim PTX: 24200000 instructions simulated : ctaid=(6,1,0) tid=(15,5,0)
GPGPU-Sim PTX: 24300000 instructions simulated : ctaid=(0,11,0) tid=(15,3,0)
GPGPU-Sim PTX: 24400000 instructions simulated : ctaid=(4,5,0) tid=(15,5,0)
GPGPU-Sim PTX: 24500000 instructions simulated : ctaid=(5,4,0) tid=(15,5,0)
GPGPU-Sim PTX: 24600000 instructions simulated : ctaid=(1,11,0) tid=(15,7,0)
GPGPU-Sim uArch: cycles simulated: 44000  inst.: 24662400 (ipc=560.5) sim_rate=440400 (inst/sec) elapsed = 0:0:00:56 / Tue Apr 16 16:49:42 2019
GPGPU-Sim PTX: 24700000 instructions simulated : ctaid=(1,8,0) tid=(15,5,0)
GPGPU-Sim PTX: 24800000 instructions simulated : ctaid=(1,0,0) tid=(15,5,0)
GPGPU-Sim PTX: 24900000 instructions simulated : ctaid=(3,1,0) tid=(15,7,0)
GPGPU-Sim uArch: cycles simulated: 44500  inst.: 24937536 (ipc=560.4) sim_rate=437500 (inst/sec) elapsed = 0:0:00:57 / Tue Apr 16 16:49:43 2019
GPGPU-Sim PTX: 25000000 instructions simulated : ctaid=(1,7,0) tid=(15,1,0)
GPGPU-Sim PTX: 25100000 instructions simulated : ctaid=(3,2,0) tid=(15,3,0)
GPGPU-Sim PTX: 25200000 instructions simulated : ctaid=(1,12,0) tid=(15,7,0)
GPGPU-Sim uArch: cycles simulated: 45000  inst.: 25225888 (ipc=560.6) sim_rate=434929 (inst/sec) elapsed = 0:0:00:58 / Tue Apr 16 16:49:44 2019
GPGPU-Sim PTX: 25300000 instructions simulated : ctaid=(0,11,0) tid=(15,1,0)
GPGPU-Sim PTX: 25400000 instructions simulated : ctaid=(4,6,0) tid=(15,5,0)
GPGPU-Sim PTX: 25500000 instructions simulated : ctaid=(5,0,0) tid=(15,3,0)
GPGPU-Sim PTX: 25600000 instructions simulated : ctaid=(6,2,0) tid=(15,5,0)
GPGPU-Sim PTX: 25700000 instructions simulated : ctaid=(5,5,0) tid=(15,7,0)
GPGPU-Sim PTX: 25800000 instructions simulated : ctaid=(1,2,0) tid=(15,7,0)
GPGPU-Sim uArch: cycles simulated: 46000  inst.: 25791296 (ipc=560.7) sim_rate=437140 (inst/sec) elapsed = 0:0:00:59 / Tue Apr 16 16:49:45 2019
GPGPU-Sim PTX: 25900000 instructions simulated : ctaid=(7,5,0) tid=(15,7,0)
GPGPU-Sim PTX: 26000000 instructions simulated : ctaid=(3,3,0) tid=(15,1,0)
GPGPU-Sim PTX: 26100000 instructions simulated : ctaid=(6,8,0) tid=(15,5,0)
GPGPU-Sim uArch: cycles simulated: 46500  inst.: 26089312 (ipc=561.1) sim_rate=434821 (inst/sec) elapsed = 0:0:01:00 / Tue Apr 16 16:49:46 2019
GPGPU-Sim PTX: 26200000 instructions simulated : ctaid=(6,7,0) tid=(15,1,0)
GPGPU-Sim PTX: 26300000 instructions simulated : ctaid=(1,4,0) tid=(15,3,0)
GPGPU-Sim PTX: 26400000 instructions simulated : ctaid=(4,7,0) tid=(15,1,0)
GPGPU-Sim PTX: 26500000 instructions simulated : ctaid=(0,12,0) tid=(15,1,0)
GPGPU-Sim PTX: 26600000 instructions simulated : ctaid=(7,11,0) tid=(15,1,0)
GPGPU-Sim uArch: cycles simulated: 47500  inst.: 26669216 (ipc=561.5) sim_rate=437200 (inst/sec) elapsed = 0:0:01:01 / Tue Apr 16 16:49:47 2019
GPGPU-Sim PTX: 26700000 instructions simulated : ctaid=(1,2,0) tid=(15,7,0)
GPGPU-Sim PTX: 26800000 instructions simulated : ctaid=(2,6,0) tid=(15,1,0)
GPGPU-Sim PTX: 26900000 instructions simulated : ctaid=(7,3,0) tid=(15,1,0)
GPGPU-Sim PTX: 27000000 instructions simulated : ctaid=(4,4,0) tid=(15,3,0)
GPGPU-Sim PTX: 27100000 instructions simulated : ctaid=(0,11,0) tid=(15,5,0)
GPGPU-Sim PTX: 27200000 instructions simulated : ctaid=(1,1,0) tid=(15,5,0)
GPGPU-Sim uArch: cycles simulated: 48500  inst.: 27225664 (ipc=561.4) sim_rate=439123 (inst/sec) elapsed = 0:0:01:02 / Tue Apr 16 16:49:48 2019
GPGPU-Sim PTX: 27300000 instructions simulated : ctaid=(7,2,0) tid=(15,7,0)
GPGPU-Sim PTX: 27400000 instructions simulated : ctaid=(7,11,0) tid=(15,7,0)
GPGPU-Sim PTX: 27500000 instructions simulated : ctaid=(4,1,0) tid=(15,1,0)
GPGPU-Sim uArch: cycles simulated: 49000  inst.: 27507456 (ipc=561.4) sim_rate=436626 (inst/sec) elapsed = 0:0:01:03 / Tue Apr 16 16:49:49 2019
GPGPU-Sim PTX: 27600000 instructions simulated : ctaid=(1,8,0) tid=(15,7,0)
GPGPU-Sim PTX: 27700000 instructions simulated : ctaid=(1,3,0) tid=(15,3,0)
GPGPU-Sim PTX: 27800000 instructions simulated : ctaid=(0,3,0) tid=(15,5,0)
GPGPU-Sim uArch: cycles simulated: 49500  inst.: 27795360 (ipc=561.5) sim_rate=434302 (inst/sec) elapsed = 0:0:01:04 / Tue Apr 16 16:49:50 2019
GPGPU-Sim PTX: 27900000 instructions simulated : ctaid=(7,1,0) tid=(15,3,0)
GPGPU-Sim PTX: 28000000 instructions simulated : ctaid=(7,1,0) tid=(15,7,0)
GPGPU-Sim PTX: 28100000 instructions simulated : ctaid=(2,6,0) tid=(15,7,0)
GPGPU-Sim PTX: 28200000 instructions simulated : ctaid=(5,6,0) tid=(15,5,0)
GPGPU-Sim PTX: 28300000 instructions simulated : ctaid=(4,0,0) tid=(15,3,0)
GPGPU-Sim uArch: cycles simulated: 50500  inst.: 28372864 (ipc=561.8) sim_rate=436505 (inst/sec) elapsed = 0:0:01:05 / Tue Apr 16 16:49:51 2019
GPGPU-Sim PTX: 28400000 instructions simulated : ctaid=(5,12,0) tid=(15,1,0)
GPGPU-Sim PTX: 28500000 instructions simulated : ctaid=(7,0,0) tid=(15,5,0)
GPGPU-Sim PTX: 28600000 instructions simulated : ctaid=(4,1,0) tid=(15,3,0)
GPGPU-Sim uArch: cycles simulated: 51000  inst.: 28650624 (ipc=561.8) sim_rate=434100 (inst/sec) elapsed = 0:0:01:06 / Tue Apr 16 16:49:52 2019
GPGPU-Sim PTX: 28700000 instructions simulated : ctaid=(2,1,0) tid=(15,3,0)
GPGPU-Sim PTX: 28800000 instructions simulated : ctaid=(7,10,0) tid=(15,5,0)
GPGPU-Sim PTX: 28900000 instructions simulated : ctaid=(0,4,0) tid=(15,1,0)
GPGPU-Sim PTX: 29000000 instructions simulated : ctaid=(0,10,0) tid=(15,3,0)
GPGPU-Sim PTX: 29100000 instructions simulated : ctaid=(0,5,0) tid=(15,1,0)
GPGPU-Sim PTX: 29200000 instructions simulated : ctaid=(6,0,0) tid=(15,5,0)
GPGPU-Sim uArch: cycles simulated: 52000  inst.: 29213888 (ipc=561.8) sim_rate=436028 (inst/sec) elapsed = 0:0:01:07 / Tue Apr 16 16:49:53 2019
GPGPU-Sim PTX: 29300000 instructions simulated : ctaid=(5,2,0) tid=(15,1,0)
GPGPU-Sim PTX: 29400000 instructions simulated : ctaid=(4,9,0) tid=(15,5,0)
GPGPU-Sim PTX: 29500000 instructions simulated : ctaid=(1,2,0) tid=(15,3,0)
GPGPU-Sim PTX: 29600000 instructions simulated : ctaid=(0,6,0) tid=(15,5,0)
GPGPU-Sim PTX: 29700000 instructions simulated : ctaid=(7,6,0) tid=(15,3,0)
GPGPU-Sim PTX: 29800000 instructions simulated : ctaid=(0,12,0) tid=(15,5,0)
GPGPU-Sim uArch: cycles simulated: 53000  inst.: 29793856 (ipc=562.1) sim_rate=438144 (inst/sec) elapsed = 0:0:01:08 / Tue Apr 16 16:49:54 2019
GPGPU-Sim PTX: 29900000 instructions simulated : ctaid=(4,4,0) tid=(15,3,0)
GPGPU-Sim PTX: 30000000 instructions simulated : ctaid=(3,7,0) tid=(15,1,0)
GPGPU-Sim PTX: 30100000 instructions simulated : ctaid=(0,8,0) tid=(15,1,0)
GPGPU-Sim PTX: 30200000 instructions simulated : ctaid=(7,3,0) tid=(15,1,0)
GPGPU-Sim PTX: 30300000 instructions simulated : ctaid=(6,11,0) tid=(15,1,0)
GPGPU-Sim uArch: cycles simulated: 54000  inst.: 30349152 (ipc=562.0) sim_rate=439842 (inst/sec) elapsed = 0:0:01:09 / Tue Apr 16 16:49:55 2019
GPGPU-Sim PTX: 30400000 instructions simulated : ctaid=(7,0,0) tid=(15,3,0)
GPGPU-Sim PTX: 30500000 instructions simulated : ctaid=(7,7,0) tid=(15,5,0)
GPGPU-Sim PTX: 30600000 instructions simulated : ctaid=(3,6,0) tid=(15,5,0)
GPGPU-Sim PTX: 30700000 instructions simulated : ctaid=(5,8,0) tid=(15,1,0)
GPGPU-Sim PTX: 30800000 instructions simulated : ctaid=(0,0,0) tid=(15,3,0)
GPGPU-Sim PTX: 30900000 instructions simulated : ctaid=(1,6,0) tid=(15,1,0)
GPGPU-Sim uArch: cycles simulated: 55000  inst.: 30933056 (ipc=562.4) sim_rate=441900 (inst/sec) elapsed = 0:0:01:10 / Tue Apr 16 16:49:56 2019
GPGPU-Sim PTX: 31000000 instructions simulated : ctaid=(6,1,0) tid=(15,3,0)
GPGPU-Sim PTX: 31100000 instructions simulated : ctaid=(4,7,0) tid=(15,5,0)
GPGPU-Sim PTX: 31200000 instructions simulated : ctaid=(4,13,0) tid=(15,5,0)
GPGPU-Sim PTX: 31300000 instructions simulated : ctaid=(4,3,0) tid=(15,3,0)
GPGPU-Sim PTX: 31400000 instructions simulated : ctaid=(1,0,0) tid=(15,5,0)
GPGPU-Sim PTX: 31500000 instructions simulated : ctaid=(0,7,0) tid=(15,7,0)
GPGPU-Sim uArch: cycles simulated: 56000  inst.: 31501824 (ipc=562.5) sim_rate=443687 (inst/sec) elapsed = 0:0:01:11 / Tue Apr 16 16:49:57 2019
GPGPU-Sim PTX: 31600000 instructions simulated : ctaid=(4,10,0) tid=(15,5,0)
GPGPU-Sim PTX: 31700000 instructions simulated : ctaid=(3,9,0) tid=(15,5,0)
GPGPU-Sim PTX: 31800000 instructions simulated : ctaid=(2,7,0) tid=(15,1,0)
GPGPU-Sim PTX: 31900000 instructions simulated : ctaid=(5,5,0) tid=(15,5,0)
GPGPU-Sim PTX: 32000000 instructions simulated : ctaid=(5,10,0) tid=(15,1,0)
GPGPU-Sim uArch: cycles simulated: 57000  inst.: 32071776 (ipc=562.7) sim_rate=445441 (inst/sec) elapsed = 0:0:01:12 / Tue Apr 16 16:49:58 2019
GPGPU-Sim PTX: 32100000 instructions simulated : ctaid=(6,1,0) tid=(15,3,0)
GPGPU-Sim PTX: 32200000 instructions simulated : ctaid=(0,7,0) tid=(15,1,0)
GPGPU-Sim PTX: 32300000 instructions simulated : ctaid=(5,3,0) tid=(15,7,0)
GPGPU-Sim PTX: 32400000 instructions simulated : ctaid=(2,8,0) tid=(15,3,0)
GPGPU-Sim PTX: 32500000 instructions simulated : ctaid=(7,4,0) tid=(15,5,0)
GPGPU-Sim PTX: 32600000 instructions simulated : ctaid=(5,1,0) tid=(15,1,0)
GPGPU-Sim uArch: cycles simulated: 58000  inst.: 32630112 (ipc=562.6) sim_rate=446987 (inst/sec) elapsed = 0:0:01:13 / Tue Apr 16 16:49:59 2019
GPGPU-Sim PTX: 32700000 instructions simulated : ctaid=(3,10,0) tid=(15,1,0)
GPGPU-Sim PTX: 32800000 instructions simulated : ctaid=(7,12,0) tid=(15,1,0)
GPGPU-Sim PTX: 32900000 instructions simulated : ctaid=(6,0,0) tid=(15,5,0)
GPGPU-Sim uArch: cycles simulated: 58500  inst.: 32918720 (ipc=562.7) sim_rate=444847 (inst/sec) elapsed = 0:0:01:14 / Tue Apr 16 16:50:00 2019
GPGPU-Sim PTX: 33000000 instructions simulated : ctaid=(1,10,0) tid=(15,5,0)
GPGPU-Sim PTX: 33100000 instructions simulated : ctaid=(3,1,0) tid=(15,1,0)
GPGPU-Sim PTX: 33200000 instructions simulated : ctaid=(4,1,0) tid=(15,7,0)
GPGPU-Sim PTX: 33300000 instructions simulated : ctaid=(5,6,0) tid=(15,7,0)
GPGPU-Sim PTX: 33400000 instructions simulated : ctaid=(5,0,0) tid=(15,7,0)
GPGPU-Sim PTX: 33500000 instructions simulated : ctaid=(2,8,0) tid=(15,3,0)
GPGPU-Sim uArch: cycles simulated: 59500  inst.: 33500096 (ipc=563.0) sim_rate=446667 (inst/sec) elapsed = 0:0:01:15 / Tue Apr 16 16:50:01 2019
GPGPU-Sim PTX: 33600000 instructions simulated : ctaid=(0,3,0) tid=(15,3,0)
GPGPU-Sim PTX: 33700000 instructions simulated : ctaid=(1,10,0) tid=(15,5,0)
GPGPU-Sim PTX: 33800000 instructions simulated : ctaid=(7,10,0) tid=(15,1,0)
GPGPU-Sim PTX: 33900000 instructions simulated : ctaid=(1,8,0) tid=(15,3,0)
GPGPU-Sim PTX: 34000000 instructions simulated : ctaid=(4,0,0) tid=(15,5,0)
GPGPU-Sim PTX: 34100000 instructions simulated : ctaid=(7,10,0) tid=(15,5,0)
GPGPU-Sim PTX: 34200000 instructions simulated : ctaid=(5,1,0) tid=(15,7,0)
GPGPU-Sim PTX: 34300000 instructions simulated : ctaid=(2,1,0) tid=(15,7,0)
GPGPU-Sim uArch: cycles simulated: 61000  inst.: 34363552 (ipc=563.3) sim_rate=452152 (inst/sec) elapsed = 0:0:01:16 / Tue Apr 16 16:50:02 2019
GPGPU-Sim PTX: 34400000 instructions simulated : ctaid=(7,10,0) tid=(15,7,0)
GPGPU-Sim PTX: 34500000 instructions simulated : ctaid=(1,0,0) tid=(15,5,0)
GPGPU-Sim PTX: 34600000 instructions simulated : ctaid=(2,8,0) tid=(15,1,0)
GPGPU-Sim uArch: cycles simulated: 61500  inst.: 34634336 (ipc=563.2) sim_rate=449796 (inst/sec) elapsed = 0:0:01:17 / Tue Apr 16 16:50:03 2019
GPGPU-Sim PTX: 34700000 instructions simulated : ctaid=(7,1,0) tid=(15,7,0)
GPGPU-Sim PTX: 34800000 instructions simulated : ctaid=(7,12,0) tid=(15,1,0)
GPGPU-Sim PTX: 34900000 instructions simulated : ctaid=(5,2,0) tid=(15,1,0)
GPGPU-Sim uArch: cycles simulated: 62000  inst.: 34920192 (ipc=563.2) sim_rate=447694 (inst/sec) elapsed = 0:0:01:18 / Tue Apr 16 16:50:04 2019
GPGPU-Sim PTX: 35000000 instructions simulated : ctaid=(2,7,0) tid=(15,1,0)
GPGPU-Sim PTX: 35100000 instructions simulated : ctaid=(3,0,0) tid=(15,3,0)
GPGPU-Sim PTX: 35200000 instructions simulated : ctaid=(6,0,0) tid=(15,1,0)
GPGPU-Sim uArch: cycles simulated: 62500  inst.: 35202144 (ipc=563.2) sim_rate=445596 (inst/sec) elapsed = 0:0:01:19 / Tue Apr 16 16:50:05 2019
GPGPU-Sim PTX: 35300000 instructions simulated : ctaid=(5,0,0) tid=(15,3,0)
GPGPU-Sim PTX: 35400000 instructions simulated : ctaid=(6,2,0) tid=(15,3,0)
GPGPU-Sim PTX: 35500000 instructions simulated : ctaid=(0,0,0) tid=(15,1,0)
GPGPU-Sim PTX: 35600000 instructions simulated : ctaid=(2,2,0) tid=(15,7,0)
GPGPU-Sim PTX: 35700000 instructions simulated : ctaid=(7,7,0) tid=(15,5,0)
GPGPU-Sim uArch: cycles simulated: 63500  inst.: 35758784 (ipc=563.1) sim_rate=446984 (inst/sec) elapsed = 0:0:01:20 / Tue Apr 16 16:50:06 2019
GPGPU-Sim PTX: 35800000 instructions simulated : ctaid=(4,10,0) tid=(15,3,0)
GPGPU-Sim PTX: 35900000 instructions simulated : ctaid=(4,4,0) tid=(15,7,0)
GPGPU-Sim PTX: 36000000 instructions simulated : ctaid=(1,2,0) tid=(15,1,0)
GPGPU-Sim uArch: cycles simulated: 64000  inst.: 36069248 (ipc=563.6) sim_rate=445299 (inst/sec) elapsed = 0:0:01:21 / Tue Apr 16 16:50:07 2019
GPGPU-Sim PTX: 36100000 instructions simulated : ctaid=(0,9,0) tid=(15,7,0)
GPGPU-Sim PTX: 36200000 instructions simulated : ctaid=(3,9,0) tid=(15,1,0)
GPGPU-Sim PTX: 36300000 instructions simulated : ctaid=(4,5,0) tid=(15,7,0)
GPGPU-Sim PTX: 36400000 instructions simulated : ctaid=(5,14,0) tid=(15,1,0)
GPGPU-Sim PTX: 36500000 instructions simulated : ctaid=(3,5,0) tid=(15,5,0)
GPGPU-Sim PTX: 36600000 instructions simulated : ctaid=(1,13,0) tid=(15,5,0)
GPGPU-Sim uArch: cycles simulated: 65000  inst.: 36644928 (ipc=563.8) sim_rate=446889 (inst/sec) elapsed = 0:0:01:22 / Tue Apr 16 16:50:08 2019
GPGPU-Sim PTX: 36700000 instructions simulated : ctaid=(0,11,0) tid=(15,1,0)
GPGPU-Sim PTX: 36800000 instructions simulated : ctaid=(1,3,0) tid=(15,3,0)
GPGPU-Sim PTX: 36900000 instructions simulated : ctaid=(7,1,0) tid=(15,5,0)
GPGPU-Sim PTX: 37000000 instructions simulated : ctaid=(4,7,0) tid=(15,7,0)
GPGPU-Sim PTX: 37100000 instructions simulated : ctaid=(3,3,0) tid=(15,5,0)
GPGPU-Sim PTX: 37200000 instructions simulated : ctaid=(5,0,0) tid=(15,1,0)
GPGPU-Sim uArch: cycles simulated: 66000  inst.: 37201280 (ipc=563.7) sim_rate=448208 (inst/sec) elapsed = 0:0:01:23 / Tue Apr 16 16:50:09 2019
GPGPU-Sim PTX: 37300000 instructions simulated : ctaid=(2,10,0) tid=(15,1,0)
GPGPU-Sim PTX: 37400000 instructions simulated : ctaid=(2,4,0) tid=(15,3,0)
GPGPU-Sim PTX: 37500000 instructions simulated : ctaid=(5,1,0) tid=(15,3,0)
GPGPU-Sim PTX: 37600000 instructions simulated : ctaid=(6,0,0) tid=(15,1,0)
GPGPU-Sim PTX: 37700000 instructions simulated : ctaid=(6,0,0) tid=(15,7,0)
GPGPU-Sim PTX: 37800000 instructions simulated : ctaid=(0,1,0) tid=(15,3,0)
GPGPU-Sim uArch: cycles simulated: 67000  inst.: 37778144 (ipc=563.9) sim_rate=449739 (inst/sec) elapsed = 0:0:01:24 / Tue Apr 16 16:50:10 2019
GPGPU-Sim PTX: 37900000 instructions simulated : ctaid=(2,3,0) tid=(15,5,0)
GPGPU-Sim PTX: 38000000 instructions simulated : ctaid=(1,10,0) tid=(15,1,0)
GPGPU-Sim PTX: 38100000 instructions simulated : ctaid=(1,11,0) tid=(15,3,0)
GPGPU-Sim PTX: 38200000 instructions simulated : ctaid=(6,12,0) tid=(15,1,0)
GPGPU-Sim PTX: 38300000 instructions simulated : ctaid=(6,6,0) tid=(15,5,0)
GPGPU-Sim uArch: cycles simulated: 68000  inst.: 38345280 (ipc=563.9) sim_rate=451120 (inst/sec) elapsed = 0:0:01:25 / Tue Apr 16 16:50:11 2019
GPGPU-Sim PTX: 38400000 instructions simulated : ctaid=(2,3,0) tid=(15,1,0)
GPGPU-Sim PTX: 38500000 instructions simulated : ctaid=(5,4,0) tid=(15,3,0)
GPGPU-Sim PTX: 38600000 instructions simulated : ctaid=(5,3,0) tid=(15,5,0)
GPGPU-Sim uArch: cycles simulated: 68500  inst.: 38627616 (ipc=563.9) sim_rate=449158 (inst/sec) elapsed = 0:0:01:26 / Tue Apr 16 16:50:12 2019
GPGPU-Sim PTX: 38700000 instructions simulated : ctaid=(5,1,0) tid=(15,3,0)
GPGPU-Sim PTX: 38800000 instructions simulated : ctaid=(5,0,0) tid=(15,3,0)
GPGPU-Sim PTX: 38900000 instructions simulated : ctaid=(3,7,0) tid=(15,3,0)
GPGPU-Sim PTX: 39000000 instructions simulated : ctaid=(0,1,0) tid=(15,7,0)
GPGPU-Sim PTX: 39100000 instructions simulated : ctaid=(7,8,0) tid=(15,3,0)
GPGPU-Sim uArch: cycles simulated: 69500  inst.: 39162144 (ipc=563.5) sim_rate=450139 (inst/sec) elapsed = 0:0:01:27 / Tue Apr 16 16:50:13 2019
GPGPU-Sim PTX: 39200000 instructions simulated : ctaid=(3,3,0) tid=(15,3,0)
GPGPU-Sim PTX: 39300000 instructions simulated : ctaid=(0,7,0) tid=(15,7,0)
GPGPU-Sim PTX: 39400000 instructions simulated : ctaid=(4,12,0) tid=(15,3,0)
GPGPU-Sim PTX: 39500000 instructions simulated : ctaid=(5,13,0) tid=(15,5,0)
GPGPU-Sim PTX: 39600000 instructions simulated : ctaid=(1,1,0) tid=(15,7,0)
GPGPU-Sim PTX: 39700000 instructions simulated : ctaid=(2,9,0) tid=(15,7,0)
GPGPU-Sim uArch: cycles simulated: 70500  inst.: 39704512 (ipc=563.2) sim_rate=451187 (inst/sec) elapsed = 0:0:01:28 / Tue Apr 16 16:50:14 2019
GPGPU-Sim PTX: 39800000 instructions simulated : ctaid=(6,10,0) tid=(15,1,0)
GPGPU-Sim uArch: Shader 0 finished CTA #0 (70771,0), 7 CTAs running
GPGPU-Sim uArch: core:  0, cta: 0 initialized @(70772,0)
GPGPU-Sim PTX: 39900000 instructions simulated : ctaid=(3,7,0) tid=(15,7,0)
GPGPU-Sim uArch: Shader 14 finished CTA #0 (70959,0), 7 CTAs running
GPGPU-Sim uArch: core: 14, cta: 0 initialized @(70960,0)
GPGPU-Sim PTX: 40000000 instructions simulated : ctaid=(6,13,0) tid=(15,1,0)
GPGPU-Sim uArch: Shader 11 finished CTA #0 (70974,0), 7 CTAs running
GPGPU-Sim uArch: core: 11, cta: 0 initialized @(70975,0)
GPGPU-Sim uArch: cycles simulated: 71000  inst.: 39991360 (ipc=563.3) sim_rate=449341 (inst/sec) elapsed = 0:0:01:29 / Tue Apr 16 16:50:15 2019
GPGPU-Sim PTX: 40100000 instructions simulated : ctaid=(7,1,0) tid=(15,3,0)
GPGPU-Sim PTX: 40200000 instructions simulated : ctaid=(6,3,0) tid=(15,3,0)
GPGPU-Sim uArch: Shader 3 finished CTA #0 (71309,0), 7 CTAs running
GPGPU-Sim uArch: core:  3, cta: 0 initialized @(71310,0)
GPGPU-Sim uArch: Shader 6 finished CTA #0 (71385,0), 7 CTAs running
GPGPU-Sim uArch: core:  6, cta: 0 initialized @(71386,0)
GPGPU-Sim PTX: 40300000 instructions simulated : ctaid=(0,14,0) tid=(15,1,0)
GPGPU-Sim uArch: Shader 9 finished CTA #0 (71541,0), 7 CTAs running
GPGPU-Sim uArch: core:  9, cta: 0 initialized @(71542,0)
GPGPU-Sim uArch: Shader 12 finished CTA #0 (71553,0), 7 CTAs running
GPGPU-Sim uArch: core: 12, cta: 0 initialized @(71554,0)
GPGPU-Sim uArch: Shader 4 finished CTA #0 (71572,0), 7 CTAs running
GPGPU-Sim uArch: core:  4, cta: 0 initialized @(71573,0)
GPGPU-Sim PTX: 40400000 instructions simulated : ctaid=(4,14,0) tid=(15,3,0)
GPGPU-Sim uArch: Shader 5 finished CTA #0 (71675,0), 7 CTAs running
GPGPU-Sim uArch: core:  5, cta: 0 initialized @(71676,0)
GPGPU-Sim PTX: 40500000 instructions simulated : ctaid=(1,12,0) tid=(15,3,0)
GPGPU-Sim uArch: Shader 7 finished CTA #0 (71860,0), 7 CTAs running
GPGPU-Sim uArch: core:  7, cta: 0 initialized @(71861,0)
GPGPU-Sim PTX: 40600000 instructions simulated : ctaid=(3,12,0) tid=(15,1,0)
GPGPU-Sim uArch: Shader 13 finished CTA #0 (71993,0), 7 CTAs running
GPGPU-Sim uArch: core: 13, cta: 0 initialized @(71994,0)
GPGPU-Sim uArch: cycles simulated: 72000  inst.: 40588416 (ipc=563.7) sim_rate=450982 (inst/sec) elapsed = 0:0:01:30 / Tue Apr 16 16:50:16 2019
GPGPU-Sim PTX: 40700000 instructions simulated : ctaid=(6,12,0) tid=(15,5,0)
GPGPU-Sim uArch: Shader 1 finished CTA #0 (72208,0), 7 CTAs running
GPGPU-Sim uArch: core:  1, cta: 0 initialized @(72209,0)
GPGPU-Sim PTX: 40800000 instructions simulated : ctaid=(2,9,0) tid=(15,5,0)
GPGPU-Sim uArch: Shader 2 finished CTA #0 (72340,0), 7 CTAs running
GPGPU-Sim uArch: core:  2, cta: 0 initialized @(72341,0)
GPGPU-Sim uArch: Shader 8 finished CTA #0 (72426,0), 7 CTAs running
GPGPU-Sim uArch: core:  8, cta: 0 initialized @(72427,0)
GPGPU-Sim PTX: 40900000 instructions simulated : ctaid=(3,7,0) tid=(15,7,0)
GPGPU-Sim uArch: Shader 10 finished CTA #0 (72495,0), 7 CTAs running
GPGPU-Sim uArch: core: 10, cta: 0 initialized @(72496,0)
GPGPU-Sim PTX: 41000000 instructions simulated : ctaid=(4,8,0) tid=(15,5,0)
GPGPU-Sim PTX: 41100000 instructions simulated : ctaid=(0,14,0) tid=(15,3,0)
GPGPU-Sim PTX: 41200000 instructions simulated : ctaid=(5,15,0) tid=(15,5,0)
GPGPU-Sim uArch: cycles simulated: 73000  inst.: 41175648 (ipc=564.0) sim_rate=452479 (inst/sec) elapsed = 0:0:01:31 / Tue Apr 16 16:50:17 2019
GPGPU-Sim PTX: 41300000 instructions simulated : ctaid=(5,2,0) tid=(15,3,0)
GPGPU-Sim PTX: 41400000 instructions simulated : ctaid=(7,1,0) tid=(15,7,0)
GPGPU-Sim uArch: cycles simulated: 73500  inst.: 41462432 (ipc=564.1) sim_rate=450678 (inst/sec) elapsed = 0:0:01:32 / Tue Apr 16 16:50:18 2019
GPGPU-Sim PTX: 41500000 instructions simulated : ctaid=(2,10,0) tid=(15,7,0)
GPGPU-Sim PTX: 41600000 instructions simulated : ctaid=(2,3,0) tid=(15,7,0)
GPGPU-Sim PTX: 41700000 instructions simulated : ctaid=(3,7,0) tid=(15,3,0)
GPGPU-Sim PTX: 41800000 instructions simulated : ctaid=(2,10,0) tid=(15,1,0)
GPGPU-Sim PTX: 41900000 instructions simulated : ctaid=(5,16,0) tid=(15,5,0)
GPGPU-Sim PTX: 42000000 instructions simulated : ctaid=(2,7,0) tid=(15,7,0)
GPGPU-Sim uArch: cycles simulated: 74500  inst.: 42029568 (ipc=564.2) sim_rate=451930 (inst/sec) elapsed = 0:0:01:33 / Tue Apr 16 16:50:19 2019
GPGPU-Sim PTX: 42100000 instructions simulated : ctaid=(0,3,0) tid=(15,3,0)
GPGPU-Sim PTX: 42200000 instructions simulated : ctaid=(5,11,0) tid=(15,1,0)
GPGPU-Sim PTX: 42300000 instructions simulated : ctaid=(4,8,0) tid=(15,7,0)
GPGPU-Sim PTX: 42400000 instructions simulated : ctaid=(4,7,0) tid=(15,5,0)
GPGPU-Sim PTX: 42500000 instructions simulated : ctaid=(7,10,0) tid=(15,7,0)
GPGPU-Sim PTX: 42600000 instructions simulated : ctaid=(5,11,0) tid=(15,3,0)
GPGPU-Sim uArch: cycles simulated: 75500  inst.: 42602848 (ipc=564.3) sim_rate=453221 (inst/sec) elapsed = 0:0:01:34 / Tue Apr 16 16:50:20 2019
GPGPU-Sim PTX: 42700000 instructions simulated : ctaid=(0,16,0) tid=(15,1,0)
GPGPU-Sim PTX: 42800000 instructions simulated : ctaid=(4,6,0) tid=(15,3,0)
GPGPU-Sim PTX: 42900000 instructions simulated : ctaid=(7,10,0) tid=(15,1,0)
GPGPU-Sim uArch: cycles simulated: 76000  inst.: 42887904 (ipc=564.3) sim_rate=451451 (inst/sec) elapsed = 0:0:01:35 / Tue Apr 16 16:50:21 2019
GPGPU-Sim PTX: 43000000 instructions simulated : ctaid=(6,4,0) tid=(15,7,0)
GPGPU-Sim PTX: 43100000 instructions simulated : ctaid=(4,7,0) tid=(15,3,0)
GPGPU-Sim PTX: 43200000 instructions simulated : ctaid=(1,10,0) tid=(15,1,0)
GPGPU-Sim uArch: cycles simulated: 76500  inst.: 43174400 (ipc=564.4) sim_rate=449733 (inst/sec) elapsed = 0:0:01:36 / Tue Apr 16 16:50:22 2019
GPGPU-Sim PTX: 43300000 instructions simulated : ctaid=(3,9,0) tid=(15,1,0)
GPGPU-Sim PTX: 43400000 instructions simulated : ctaid=(1,6,0) tid=(15,3,0)
GPGPU-Sim uArch: cycles simulated: 77000  inst.: 43461792 (ipc=564.4) sim_rate=448059 (inst/sec) elapsed = 0:0:01:37 / Tue Apr 16 16:50:23 2019
GPGPU-Sim PTX: 43500000 instructions simulated : ctaid=(7,11,0) tid=(15,7,0)
GPGPU-Sim PTX: 43600000 instructions simulated : ctaid=(7,15,0) tid=(15,5,0)
GPGPU-Sim PTX: 43700000 instructions simulated : ctaid=(0,12,0) tid=(15,3,0)
GPGPU-Sim PTX: 43800000 instructions simulated : ctaid=(0,7,0) tid=(15,3,0)
GPGPU-Sim PTX: 43900000 instructions simulated : ctaid=(0,10,0) tid=(15,7,0)
GPGPU-Sim PTX: 44000000 instructions simulated : ctaid=(0,6,0) tid=(15,7,0)
GPGPU-Sim uArch: cycles simulated: 78000  inst.: 44035424 (ipc=564.6) sim_rate=449341 (inst/sec) elapsed = 0:0:01:38 / Tue Apr 16 16:50:24 2019
GPGPU-Sim PTX: 44100000 instructions simulated : ctaid=(5,12,0) tid=(15,5,0)
GPGPU-Sim PTX: 44200000 instructions simulated : ctaid=(0,15,0) tid=(15,1,0)
GPGPU-Sim PTX: 44300000 instructions simulated : ctaid=(7,13,0) tid=(15,5,0)
GPGPU-Sim PTX: 44400000 instructions simulated : ctaid=(3,10,0) tid=(15,3,0)
GPGPU-Sim PTX: 44500000 instructions simulated : ctaid=(3,6,0) tid=(15,7,0)
GPGPU-Sim PTX: 44600000 instructions simulated : ctaid=(6,8,0) tid=(15,3,0)
GPGPU-Sim uArch: cycles simulated: 79000  inst.: 44604768 (ipc=564.6) sim_rate=450553 (inst/sec) elapsed = 0:0:01:39 / Tue Apr 16 16:50:25 2019
GPGPU-Sim PTX: 44700000 instructions simulated : ctaid=(3,16,0) tid=(15,1,0)
GPGPU-Sim PTX: 44800000 instructions simulated : ctaid=(6,9,0) tid=(15,3,0)
GPGPU-Sim uArch: Shader 6 finished CTA #1 (79369,0), 7 CTAs running
GPGPU-Sim uArch: core:  6, cta: 1 initialized @(79370,0)
GPGPU-Sim PTX: 44900000 instructions simulated : ctaid=(2,11,0) tid=(15,3,0)
GPGPU-Sim PTX: 45000000 instructions simulated : ctaid=(7,14,0) tid=(15,5,0)
GPGPU-Sim PTX: 45100000 instructions simulated : ctaid=(2,7,0) tid=(15,7,0)
GPGPU-Sim uArch: Shader 4 finished CTA #1 (79813,0), 7 CTAs running
GPGPU-Sim uArch: core:  4, cta: 1 initialized @(79814,0)
GPGPU-Sim PTX: 45200000 instructions simulated : ctaid=(2,11,0) tid=(15,5,0)
GPGPU-Sim uArch: cycles simulated: 80000  inst.: 45178880 (ipc=564.7) sim_rate=451788 (inst/sec) elapsed = 0:0:01:40 / Tue Apr 16 16:50:26 2019
GPGPU-Sim PTX: 45300000 instructions simulated : ctaid=(5,10,0) tid=(15,7,0)
GPGPU-Sim uArch: Shader 0 finished CTA #1 (80173,0), 7 CTAs running
GPGPU-Sim uArch: core:  0, cta: 1 initialized @(80174,0)
GPGPU-Sim uArch: Shader 2 finished CTA #1 (80272,0), 7 CTAs running
GPGPU-Sim uArch: core:  2, cta: 1 initialized @(80273,0)
GPGPU-Sim uArch: Shader 9 finished CTA #1 (80295,0), 7 CTAs running
GPGPU-Sim uArch: core:  9, cta: 1 initialized @(80296,0)
GPGPU-Sim PTX: 45400000 instructions simulated : ctaid=(0,13,0) tid=(15,5,0)
GPGPU-Sim uArch: Shader 3 finished CTA #1 (80341,0), 7 CTAs running
GPGPU-Sim uArch: core:  3, cta: 1 initialized @(80342,0)
GPGPU-Sim uArch: Shader 8 finished CTA #1 (80472,0), 7 CTAs running
GPGPU-Sim uArch: core:  8, cta: 1 initialized @(80473,0)
GPGPU-Sim PTX: 45500000 instructions simulated : ctaid=(6,10,0) tid=(15,3,0)
GPGPU-Sim uArch: Shader 7 finished CTA #1 (80577,0), 7 CTAs running
GPGPU-Sim uArch: core:  7, cta: 1 initialized @(80578,0)
GPGPU-Sim PTX: 45600000 instructions simulated : ctaid=(3,5,0) tid=(15,7,0)
GPGPU-Sim PTX: 45700000 instructions simulated : ctaid=(7,14,0) tid=(15,5,0)
GPGPU-Sim uArch: Shader 1 finished CTA #1 (80853,0), 7 CTAs running
GPGPU-Sim uArch: core:  1, cta: 1 initialized @(80854,0)
[...]
gpgpu_stall_shd_mem[g_mem_st][wb_icnt_rc] = 0
gpgpu_stall_shd_mem[g_mem_st][wb_rsrv_fail] = 0
gpgpu_stall_shd_mem[l_mem_ld][mshr_rc] = 0
gpgpu_stall_shd_mem[l_mem_ld][icnt_rc] = 0
gpgpu_stall_shd_mem[l_mem_ld][wb_icnt_rc] = 0
gpgpu_stall_shd_mem[l_mem_ld][wb_rsrv_fail] = 0
gpgpu_stall_shd_mem[l_mem_st][mshr_rc] = 0
gpgpu_stall_shd_mem[l_mem_st][icnt_rc] = 0
gpgpu_stall_shd_mem[l_mem_ld][wb_icnt_rc] = 0
gpgpu_stall_shd_mem[l_mem_ld][wb_rsrv_fail] = 0
gpu_reg_bank_conflict_stalls = 0
Warp Occupancy Distribution:
Stall:1904718	W0_Idle:219809	W0_Scoreboard:824919	W1:0	W2:0	W3:0	W4:0	W5:0	W6:0	W7:0	W8:0	W9:0	W10:0	W11:0	W12:0	W13:0	W14:0	W15:0	W16:0	W17:0	W18:0	W19:0	W20:0	W21:0	W22:0	W23:0	W24:0	W25:0	W26:0	W27:0	W28:0	W29:0	W30:0	W31:0	W32:3938304
traffic_breakdown_coretomem[CONST_ACC_R] = 6120 {8:765,}
traffic_breakdown_coretomem[GLOBAL_ACC_R] = 32384 {8:4048,}
traffic_breakdown_coretomem[GLOBAL_ACC_W] = 294912 {72:4096,}
traffic_breakdown_coretomem[INST_ACC_R] = 600 {8:75,}
traffic_breakdown_memtocore[CONST_ACC_R] = 55080 {72:765,}
traffic_breakdown_memtocore[GLOBAL_ACC_R] = 550528 {136:4048,}
traffic_breakdown_memtocore[GLOBAL_ACC_W] = 32768 {8:4096,}
traffic_breakdown_memtocore[INST_ACC_R] = 10200 {136:75,}
maxmrqlatency = 133 
maxdqlatency = 0 
maxmflatency = 419 
averagemflatency = 181 
max_icnt2mem_latency = 66 
max_icnt2sh_latency = 241882 
mrq_lat_table:1912 	12 	14 	22 	24 	41 	49 	5 	0 	0 	0 	0 	0 	0 	0 	0 	0 	0 	0 	0 	0 	0 	0 	0 	0 	0 	0 	0 	0 	0 	0 	0 	
dq_lat_table:0 	0 	0 	0 	0 	0 	0 	0 	0 	0 	0 	0 	0 	0 	0 	0 	0 	0 	0 	0 	0 	0 	0 	0 	0 	0 	0 	0 	0 	0 	0 	0 	
mf_lat_table:0 	0 	0 	0 	0 	0 	0 	6713 	2196 	0 	0 	0 	0 	0 	0 	0 	0 	0 	0 	0 	0 	0 	0 	0 	0 	0 	0 	0 	0 	0 	0 	0 	
icnt2mem_lat_table:0 	0 	0 	7780 	1058 	145 	1 	0 	0 	0 	0 	0 	0 	0 	0 	0 	0 	0 	0 	0 	0 	0 	0 	0 	
icnt2sh_lat_table:0 	0 	0 	2364 	2241 	190 	18 	0 	0 	0 	0 	0 	0 	0 	0 	0 	1712 	2384 	0 	0 	0 	0 	0 	0 	
mf_lat_pw_table:0 	0 	0 	0 	0 	0 	0 	289 	18 	0 	0 	0 	0 	0 	0 	0 	0 	0 	0 	0 	0 	0 	0 	0 	0 	0 	0 	0 	0 	0 	0 	0 	
maximum concurrent accesses to same row:
dram[0]:         1         0         0         0         0         0         0         0         0         0         0         0         0         0         0         0 
dram[1]:         2         0         0         0         0         0         0         0         0         0         0         0         0         0         0         0 
dram[2]:         2         0         0         0         0         0         0         0         0         0         0         0         0         0         0         0 
dram[3]:         0         0         0         0         0         0         0         0         0         0         0         0         0         0         0         0 
dram[4]:         0         0         0         0         0         0         0         0         0         0         0         0         0         0         0         0 
dram[5]:         0         0         0         0         0         0         0         0         0         0         0         0         0         0         0         0 
maximum service time to same row:
dram[0]:     59875         0         0         0     69354     69369     69338     69332     71747     73422    109372    108479    151001    152496    184918    199207 
dram[1]:      2856         0         0         0     69335     69329     69346     69351     72179     72326    110379    109606    151601    156979    198574    198904 
dram[2]:     69029         0         0         0     69371     69357     69335     69341     73424     71750    108481    120085    152497    152522    199210    186866 
dram[3]:         0         0         0         0     69325     69331     69353     69347     72329     72181    109607    120460    156981    153194    198906    199769 
dram[4]:         0         0         0         0     69360     69367     69343     69337     72110     76257    109371    119422    150999    153107    184916    200210 
dram[5]:         0         0         0         0     69332     69326     69344     69355     72235     76254    110376    120804    151600    158329    198572    200237 
average row accesses per activate:
dram[0]:  1.250000       inf      -nan      -nan 10.000000 10.000000 32.000000 32.000000 32.000000 32.000000 32.000000 32.000000 32.000000 32.000000 32.000000 32.000000 
dram[1]:  2.500000       inf      -nan      -nan 10.000000 10.000000 32.000000 32.000000 32.000000 32.000000 32.000000 32.000000 32.000000 32.000000 32.000000 32.000000 
dram[2]:  3.000000       inf      -nan      -nan 10.000000 12.000000 32.000000 32.000000 32.000000 32.000000 32.000000 32.000000 32.000000 32.000000 32.000000 32.000000 
dram[3]:       inf       inf      -nan      -nan 10.000000 12.000000 32.000000 32.000000 32.000000 32.000000 32.000000 32.000000 32.000000 32.000000 32.000000 32.000000 
dram[4]:       inf       inf      -nan      -nan 10.000000 12.000000 32.000000 32.000000 32.000000 32.000000 32.000000 32.000000 32.000000 32.000000 32.000000 32.000000 
dram[5]:       inf       inf      -nan      -nan 10.000000 12.000000 32.000000 32.000000 32.000000 32.000000 32.000000 32.000000 32.000000 32.000000 32.000000 32.000000 
average row locality = 2079/79 = 26.316456
number of total memory accesses made:
dram[0]:         0         0         0         0         0         0         0         0         0         0         0         0         0         0         0         0 
dram[1]:         0         0         0         0         0         0         0         0         0         0         0         0         0         0         0         0 
dram[2]:         0         0         0         0         0         0         0         0         0         0         0         0         0         0         0         0 
dram[3]:         0         0         0         0         0         0         0         0         0         0         0         0         0         0         0         0 
dram[4]:         0         0         0         0         0         0         0         0         0         0         0         0         0         0         0         0 
dram[5]:         0         0         0         0         0         0         0         0         0         0         0         0         0         0         0         0 
total accesses: 0
min_bank_accesses = 0!
min_chip_accesses = 0!
number of total read accesses:
dram[0]:         5         2         0         0        10        10        32        32        32        32        32        32        32        32        32        32 
dram[1]:         5         2         0         0        10        10        32        32        32        32        32        32        32        32        32        32 
dram[2]:         3         2         0         0        10        12        32        32        32        32        32        32        32        32        32        32 
dram[3]:         2         2         0         0        10        12        32        32        32        32        32        32        32        32        32        32 
dram[4]:         2         2         0         0        10        12        32        32        32        32        32        32        32        32        32        32 
dram[5]:         2         2         0         0        10        12        32        32        32        32        32        32        32        32        32        32 
total reads: 2079
min_bank_accesses = 0!
chip skew: 347/346 = 1.00
number of total write accesses:
dram[0]:         0         0         0         0         0         0         0         0         0         0         0         0         0         0         0         0 
dram[1]:         0         0         0         0         0         0         0         0         0         0         0         0         0         0         0         0 
dram[2]:         0         0         0         0         0         0         0         0         0         0         0         0         0         0         0         0 
dram[3]:         0         0         0         0         0         0         0         0         0         0         0         0         0         0         0         0 
dram[4]:         0         0         0         0         0         0         0         0         0         0         0         0         0         0         0         0 
dram[5]:         0         0         0         0         0         0         0         0         0         0         0         0         0         0         0         0 
total reads: 0
min_bank_accesses = 0!
min_chip_accesses = 0!
average mf latency per bank:
dram[0]:       3120      5668    none      none         850       771       806       751       692       688       693       679       697       697       698       698
dram[1]:       3662      5759    none      none         807       838       795       794       697       693       693       697       698       693       698       692
dram[2]:       3889      5945    none      none         785       799       781       812       688       698       687       697       688       697       689       699
dram[3]:       5820      5902    none      none         729       836       729       845       693       693       687       693       688       698       692       693
dram[4]:       5747      6002    none      none         827       798       813       783       693       696       694       688       697       689       697       689
dram[5]:       5689      5736    none      none         762       789       777       755       692       698       688       687       698       693       693       697
maximum mf latency per bank:
dram[0]:        282       272         0         0       355       312       418       396       268       268       273       268       273       268       273       268
dram[1]:        409       269         0         0       317       306       371       390       268       267       274       268       273       268       273       268
dram[2]:        269       271         0         0       331       336       404       418       273       273       273       268       273       268       273       268
dram[3]:        276       269         0         0       304       333       328       400       272       273       273       268       273       268       273       269
dram[4]:        272       281         0         0       350       325       410       419       269       268       268       268       268       269       268       269
dram[5]:        270       271         0         0       312       306       366       389       271       268       267       268       268       269       268       269

Number of Memory Banks Accessed per Memory Operation per Warp (from 0):
0	0	0	0	0	0	0	0	0	0	0	0	0	0	0	0	0	0	0	0	0	0	0	0	0	0	0	0	0	0	0	0	0	0	0	0	0	0	0	0	0	0	0	0	0	0	0	0	0	0	0	0	0	0	0	0	0	0	0	0	0	0	0	0	0	0	0	0	0	0	0	0	0	0	0	0	0	0	0	0	0	0	0	0	0	0	0	0	0	0	0	0	0	0	0	0	
Average # of Memory Banks Accessed per Memory Operation per Warp=-nan

position of mrq chosen
0	0	0	0	0	0	0	0	0	0	0	0	0	0	0	0	

average position of mrq chosen = -nan
Memory Partition 0: 
Cache L2_bank_000:
MSHR contents

Cache L2_bank_001:
MSHR contents

In Dram Latency Queue (total = 0): 
DRAM[0]: 16 bks, busW=4 BL=8 CL=12, tRRD=2 tCCD=6, tRCD=12 tRAS=28 tRP=12 tRC=40
n_cmd=319285 n_nop=318571 n_act=17 n_pre=3 n_req=347 n_rd=694 n_write=0 bw_util=0.004347
n_activity=5205 dram_eff=0.2667
bk0: 10a 319179i bk1: 4a 319261i bk2: 0a 319285i bk3: 0a 319286i bk4: 20a 319216i bk5: 20a 319195i bk6: 64a 319031i bk7: 64a 318974i bk8: 64a 319144i bk9: 64a 319143i bk10: 64a 319143i bk11: 64a 319131i bk12: 64a 319142i bk13: 64a 319143i bk14: 64a 319142i bk15: 64a 319142i 
dram_util_bins: 0 0 0 0 0 0 0 0 0 0
dram_eff_bins: 0 0 0 0 0 0 0 0 0 0
mrqq: max=14 avg=0.00489218
Memory Partition 1: 
Cache L2_bank_002:
MSHR contents

Cache L2_bank_003:
MSHR contents

In Dram Latency Queue (total = 0): 
DRAM[1]: 16 bks, busW=4 BL=8 CL=12, tRRD=2 tCCD=6, tRCD=12 tRAS=28 tRP=12 tRC=40
n_cmd=319285 n_nop=318573 n_act=16 n_pre=2 n_req=347 n_rd=694 n_write=0 bw_util=0.004347
n_activity=5157 dram_eff=0.2691
bk0: 10a 319202i bk1: 4a 319261i bk2: 0a 319283i bk3: 0a 319285i bk4: 20a 319207i bk5: 20a 319205i bk6: 64a 319049i bk7: 64a 318989i bk8: 64a 319145i bk9: 64a 319146i bk10: 64a 319139i bk11: 64a 319144i bk12: 64a 319141i bk13: 64a 319142i bk14: 64a 319141i bk15: 64a 319143i 
dram_util_bins: 0 0 0 0 0 0 0 0 0 0
dram_eff_bins: 0 0 0 0 0 0 0 0 0 0
mrqq: max=13 avg=0.00413424
Memory Partition 2: 
Cache L2_bank_004:
MSHR contents

Cache L2_bank_005:
MSHR contents

In Dram Latency Queue (total = 0): 
DRAM[2]: 16 bks, busW=4 BL=8 CL=12, tRRD=2 tCCD=6, tRCD=12 tRAS=28 tRP=12 tRC=40
n_cmd=319285 n_nop=318575 n_act=15 n_pre=1 n_req=347 n_rd=694 n_write=0 bw_util=0.004347
n_activity=5046 dram_eff=0.2751
bk0: 6a 319235i bk1: 4a 319263i bk2: 0a 319283i bk3: 0a 319287i bk4: 20a 319216i bk5: 24a 319156i bk6: 64a 319022i bk7: 64a 318979i bk8: 64a 319143i bk9: 64a 319142i bk10: 64a 319143i bk11: 64a 319144i bk12: 64a 319143i bk13: 64a 319143i bk14: 64a 319143i bk15: 64a 319144i 
dram_util_bins: 0 0 0 0 0 0 0 0 0 0
dram_eff_bins: 0 0 0 0 0 0 0 0 0 0
mrqq: max=16 avg=0.00606981
Memory Partition 3: 
Cache L2_bank_006:
MSHR contents

Cache L2_bank_007:
MSHR contents

In Dram Latency Queue (total = 0): 
DRAM[3]: 16 bks, busW=4 BL=8 CL=12, tRRD=2 tCCD=6, tRCD=12 tRAS=28 tRP=12 tRC=40
n_cmd=319285 n_nop=318579 n_act=14 n_pre=0 n_req=346 n_rd=692 n_write=0 bw_util=0.004335
n_activity=5044 dram_eff=0.2744
bk0: 4a 319261i bk1: 4a 319262i bk2: 0a 319281i bk3: 0a 319284i bk4: 20a 319225i bk5: 24a 319191i bk6: 64a 319084i bk7: 64a 319016i bk8: 64a 319142i bk9: 64a 319141i bk10: 64a 319146i bk11: 64a 319143i bk12: 64a 319144i bk13: 64a 319142i bk14: 64a 319140i bk15: 64a 319140i 
dram_util_bins: 0 0 0 0 0 0 0 0 0 0
dram_eff_bins: 0 0 0 0 0 0 0 0 0 0
mrqq: max=13 avg=0.00432842
Memory Partition 4: 
Cache L2_bank_008:
MSHR contents

Cache L2_bank_009:
MSHR contents

In Dram Latency Queue (total = 0): 
DRAM[4]: 16 bks, busW=4 BL=8 CL=12, tRRD=2 tCCD=6, tRCD=12 tRAS=28 tRP=12 tRC=40
n_cmd=319285 n_nop=318579 n_act=14 n_pre=0 n_req=346 n_rd=692 n_write=0 bw_util=0.004335
n_activity=5025 dram_eff=0.2754
bk0: 4a 319263i bk1: 4a 319263i bk2: 0a 319283i bk3: 0a 319285i bk4: 20a 319218i bk5: 24a 319194i bk6: 64a 319032i bk7: 64a 318954i bk8: 64a 319145i bk9: 64a 319145i bk10: 64a 319145i bk11: 64a 319134i bk12: 64a 319143i bk13: 64a 319141i bk14: 64a 319141i bk15: 64a 319138i 
dram_util_bins: 0 0 0 0 0 0 0 0 0 0
dram_eff_bins: 0 0 0 0 0 0 0 0 0 0
mrqq: max=16 avg=0.00648324
Memory Partition 5: 
Cache L2_bank_010:
MSHR contents

Cache L2_bank_011:
MSHR contents

In Dram Latency Queue (total = 0): 
DRAM[5]: 16 bks, busW=4 BL=8 CL=12, tRRD=2 tCCD=6, tRCD=12 tRAS=28 tRP=12 tRC=40
n_cmd=319285 n_nop=318579 n_act=14 n_pre=0 n_req=346 n_rd=692 n_write=0 bw_util=0.004335
n_activity=5049 dram_eff=0.2741
bk0: 4a 319261i bk1: 4a 319263i bk2: 0a 319283i bk3: 0a 319286i bk4: 20a 319206i bk5: 24a 319191i bk6: 64a 319045i bk7: 64a 318992i bk8: 64a 319145i bk9: 64a 319137i bk10: 64a 319144i bk11: 64a 319143i bk12: 64a 319141i bk13: 64a 319144i bk14: 64a 319140i bk15: 64a 319140i 
dram_util_bins: 0 0 0 0 0 0 0 0 0 0
dram_eff_bins: 0 0 0 0 0 0 0 0 0 0
mrqq: max=14 avg=0.00457585

========= L2 cache stats =========
L2_cache_bank[0]: Access = 782, Miss = 175, Miss_rate = 0.224, Pending_hits = 15, Reservation_fails = 505
L2_cache_bank[1]: Access = 734, Miss = 172, Miss_rate = 0.234, Pending_hits = 6, Reservation_fails = 164
L2_cache_bank[2]: Access = 799, Miss = 175, Miss_rate = 0.219, Pending_hits = 15, Reservation_fails = 451
L2_cache_bank[3]: Access = 737, Miss = 172, Miss_rate = 0.233, Pending_hits = 6, Reservation_fails = 169
L2_cache_bank[4]: Access = 747, Miss = 173, Miss_rate = 0.232, Pending_hits = 9, Reservation_fails = 279
L2_cache_bank[5]: Access = 747, Miss = 174, Miss_rate = 0.233, Pending_hits = 6, Reservation_fails = 213
L2_cache_bank[6]: Access = 734, Miss = 172, Miss_rate = 0.234, Pending_hits = 6, Reservation_fails = 180
L2_cache_bank[7]: Access = 745, Miss = 174, Miss_rate = 0.234, Pending_hits = 6, Reservation_fails = 190
L2_cache_bank[8]: Access = 736, Miss = 172, Miss_rate = 0.234, Pending_hits = 6, Reservation_fails = 174
L2_cache_bank[9]: Access = 742, Miss = 174, Miss_rate = 0.235, Pending_hits = 6, Reservation_fails = 209
L2_cache_bank[10]: Access = 736, Miss = 172, Miss_rate = 0.234, Pending_hits = 6, Reservation_fails = 173
L2_cache_bank[11]: Access = 745, Miss = 174, Miss_rate = 0.234, Pending_hits = 6, Reservation_fails = 163
L2_total_cache_accesses = 8984
L2_total_cache_misses = 2079
L2_total_cache_miss_rate = 0.2314
L2_total_cache_pending_hits = 93
L2_total_cache_reservation_fails = 2870
L2_total_cache_breakdown:
	L2_cache_stats_breakdown[GLOBAL_ACC_R][HIT] = 2000
	L2_cache_stats_breakdown[GLOBAL_ACC_R][MISS] = 2048
	L2_cache_stats_breakdown[CONST_ACC_R][HIT] = 661
	L2_cache_stats_breakdown[CONST_ACC_R][HIT_RESERVED] = 78
	L2_cache_stats_breakdown[CONST_ACC_R][MISS] = 26
	L2_cache_stats_breakdown[CONST_ACC_R][RESERVATION_FAIL] = 2354
	L2_cache_stats_breakdown[GLOBAL_ACC_W][HIT] = 4096
	L2_cache_stats_breakdown[INST_ACC_R][HIT] = 55
	L2_cache_stats_breakdown[INST_ACC_R][HIT_RESERVED] = 15
	L2_cache_stats_breakdown[INST_ACC_R][MISS] = 5
	L2_cache_stats_breakdown[INST_ACC_R][RESERVATION_FAIL] = 516
L2_cache_data_port_util = 0.006
L2_cache_fill_port_util = 0.003

icnt_total_pkts_mem_to_simt=27006
icnt_total_pkts_simt_to_mem=17176
LD_mem_lat_dist  0 0 0 0 0 0 0 0 0 0 0 0 0 0 0 0 0 0 0 0 0 0 0 0 0 0 0
ST_mem_lat_dist  0 0 0 0 0 0 0 0 0 0 0 0 0 0 0 0 0 0 0 0 0 0 0 0 0 0 0
----------------------------Interconnect-DETAILS--------------------------------
Class 0:
Packet latency average = 10.6861
	minimum = 6
	maximum = 90
Network latency average = 9.40027
	minimum = 6
	maximum = 85
Slowest packet = 2670
Flit latency average = 8.22385
	minimum = 6
	maximum = 81
Slowest flit = 6000
Fragmentation average = 0
	minimum = 0
	maximum = 0
Injected packet rate average = 0.00275125
	minimum = 0.00245573 (at node 5)
	maximum = 0.00330325 (at node 17)
Accepted packet rate average = 0.00275125
	minimum = 0.00245573 (at node 5)
	maximum = 0.00330325 (at node 17)
Injected flit rate average = 0.00676513
	minimum = 0.00470475 (at node 5)
	maximum = 0.0101495 (at node 17)
Accepted flit rate average= 0.00676513
	minimum = 0.0058458 (at node 16)
	maximum = 0.0078385 (at node 7)
Injected packet length average = 2.45893
Accepted packet length average = 2.45893
Total in-flight flits = 0 (0 measured)
====== Overall Traffic Statistics ======
====== Traffic class 0 ======
Packet latency average = 10.6861 (1 samples)
	minimum = 6 (1 samples)
	maximum = 90 (1 samples)
Network latency average = 9.40027 (1 samples)
	minimum = 6 (1 samples)
	maximum = 85 (1 samples)
Flit latency average = 8.22385 (1 samples)
	minimum = 6 (1 samples)
	maximum = 81 (1 samples)
Fragmentation average = 0 (1 samples)
	minimum = 0 (1 samples)
	maximum = 0 (1 samples)
Injected packet rate average = 0.00275125 (1 samples)
	minimum = 0.00245573 (1 samples)
	maximum = 0.00330325 (1 samples)
Accepted packet rate average = 0.00275125 (1 samples)
	minimum = 0.00245573 (1 samples)
	maximum = 0.00330325 (1 samples)
Injected flit rate average = 0.00676513 (1 samples)
	minimum = 0.00470475 (1 samples)
	maximum = 0.0101495 (1 samples)
Accepted flit rate average = 0.00676513 (1 samples)
	minimum = 0.0058458 (1 samples)
	maximum = 0.0078385 (1 samples)
Injected packet size average = 2.45893 (1 samples)
Accepted packet size average = 2.45893 (1 samples)
Hops average = 1 (1 samples)
----------------------------END-of-Interconnect-DETAILS-------------------------


gpgpu_simulation_time = 0 days, 0 hrs, 4 min, 51 sec (291 sec)
gpgpu_simulation_rate = 432852 (inst/sec)
gpgpu_simulation_rate = 831 (cycle/sec)
IO:      0.000000
GPU:     290.856756
Copy:    0.046646
Compute: 0.000150
