

        *** GPGPU-Sim Simulator Version 3.2.2  [build 0] ***


GPGPU-Sim PTX: simulation mode 0 (can change with PTX_SIM_MODE_FUNC environment variable:
               1=functional simulation only, 0=detailed performance simulator)
GPGPU-Sim: Configuration options:

-network_mode                           1 # Interconnection network mode
-inter_config_file   config_fermi_islip.icnt # Interconnection network config file
-gpgpu_ptx_use_cuobjdump                    1 # Use cuobjdump to extract ptx and sass from binaries
-gpgpu_experimental_lib_support                    0 # Try to extract code from cuda libraries [Broken because of unknown cudaGetExportTable]
-gpgpu_ptx_convert_to_ptxplus                    0 # Convert SASS (native ISA) to ptxplus and run ptxplus
-gpgpu_ptx_force_max_capability                   20 # Force maximum compute capability
-gpgpu_ptx_inst_debug_to_file                    0 # Dump executed instructions' debug information to file
-gpgpu_ptx_inst_debug_file       inst_debug.txt # Executed instructions' debug output file
-gpgpu_ptx_inst_debug_thread_uid                    1 # Thread UID for executed instructions' debug output
-gpgpu_simd_model                       1 # 1 = post-dominator
-gpgpu_shader_core_pipeline              1536:32 # shader core pipeline config, i.e., {<nthread>:<warpsize>}
-gpgpu_tex_cache:l1  4:128:24,L:R:m:N:L,F:128:4,128:2 # per-shader L1 texture cache  (READ-ONLY) config  {<nsets>:<bsize>:<assoc>,<rep>:<wr>:<alloc>:<wr_alloc>,<mshr>:<N>:<merge>,<mq>:<rf>}
-gpgpu_const_cache:l1 64:64:2,L:R:f:N:L,A:2:32,4 # per-shader L1 constant memory cache  (READ-ONLY) config  {<nsets>:<bsize>:<assoc>,<rep>:<wr>:<alloc>:<wr_alloc>,<mshr>:<N>:<merge>,<mq>} 
-gpgpu_cache:il1     4:128:4,L:R:f:N:L,A:2:32,4 # shader L1 instruction cache config  {<nsets>:<bsize>:<assoc>,<rep>:<wr>:<alloc>:<wr_alloc>,<mshr>:<N>:<merge>,<mq>} 
-gpgpu_cache:dl1     32:128:4,L:L:m:N:H,A:32:8,8 # per-shader L1 data cache config  {<nsets>:<bsize>:<assoc>,<rep>:<wr>:<alloc>:<wr_alloc>,<mshr>:<N>:<merge>,<mq> | none}
-gpgpu_cache:dl1PrefL1                 none # per-shader L1 data cache config  {<nsets>:<bsize>:<assoc>,<rep>:<wr>:<alloc>:<wr_alloc>,<mshr>:<N>:<merge>,<mq> | none}
-gpgpu_cache:dl1PreShared                 none # per-shader L1 data cache config  {<nsets>:<bsize>:<assoc>,<rep>:<wr>:<alloc>:<wr_alloc>,<mshr>:<N>:<merge>,<mq> | none}
-gmem_skip_L1D                          0 # global memory access skip L1D cache (implements -Xptxas -dlcm=cg, default=no skip)
-gpgpu_perfect_mem                      0 # enable perfect memory mode (no cache miss)
-n_regfile_gating_group                    4 # group of lanes that should be read/written together)
-gpgpu_clock_gated_reg_file                    0 # enable clock gated reg file for power calculations
-gpgpu_clock_gated_lanes                    0 # enable clock gated lanes for power calculations
-gpgpu_shader_registers                32768 # Number of registers per shader core. Limits number of concurrent CTAs. (default 8192)
-gpgpu_shader_cta                       8 # Maximum number of concurrent CTAs in shader (default 8)
-gpgpu_num_cta_barriers                   16 # Maximum number of named barriers per CTA (default 16)
-gpgpu_n_clusters                      15 # number of processing clusters
-gpgpu_n_cores_per_cluster                    1 # number of simd cores per cluster
-gpgpu_n_cluster_ejection_buffer_size                    8 # number of packets in ejection buffer
-gpgpu_n_ldst_response_buffer_size                    2 # number of response packets in ld/st unit ejection buffer
-gpgpu_shmem_size                   16384 # Size of shared memory per shader core (default 16kB)
-gpgpu_shmem_size                   49152 # Size of shared memory per shader core (default 16kB)
-gpgpu_shmem_size_PrefL1                16384 # Size of shared memory per shader core (default 16kB)
-gpgpu_shmem_size_PrefShared                16384 # Size of shared memory per shader core (default 16kB)
-gpgpu_shmem_num_banks                   32 # Number of banks in the shared memory in each shader core (default 16)
-gpgpu_shmem_limited_broadcast                    0 # Limit shared memory to do one broadcast per cycle (default on)
-gpgpu_shmem_warp_parts                    1 # Number of portions a warp is divided into for shared memory bank conflict check 
-gpgpu_warpdistro_shader                   -1 # Specify which shader core to collect the warp size distribution from
-gpgpu_warp_issue_shader                    0 # Specify which shader core to collect the warp issue distribution from
-gpgpu_local_mem_map                    1 # Mapping from local memory space address to simulated GPU physical address space (default = enabled)
-gpgpu_num_reg_banks                   16 # Number of register banks (default = 8)
-gpgpu_reg_bank_use_warp_id                    0 # Use warp ID in mapping registers to banks (default = off)
-gpgpu_operand_collector_num_units_sp                    6 # number of collector units (default = 4)
-gpgpu_operand_collector_num_units_sfu                    8 # number of collector units (default = 4)
-gpgpu_operand_collector_num_units_mem                    2 # number of collector units (default = 2)
-gpgpu_operand_collector_num_units_gen                    0 # number of collector units (default = 0)
-gpgpu_operand_collector_num_in_ports_sp                    2 # number of collector unit in ports (default = 1)
-gpgpu_operand_collector_num_in_ports_sfu                    1 # number of collector unit in ports (default = 1)
-gpgpu_operand_collector_num_in_ports_mem                    1 # number of collector unit in ports (default = 1)
-gpgpu_operand_collector_num_in_ports_gen                    0 # number of collector unit in ports (default = 0)
-gpgpu_operand_collector_num_out_ports_sp                    2 # number of collector unit in ports (default = 1)
-gpgpu_operand_collector_num_out_ports_sfu                    1 # number of collector unit in ports (default = 1)
-gpgpu_operand_collector_num_out_ports_mem                    1 # number of collector unit in ports (default = 1)
-gpgpu_operand_collector_num_out_ports_gen                    0 # number of collector unit in ports (default = 0)
-gpgpu_coalesce_arch                   13 # Coalescing arch (default = 13, anything else is off for now)
-gpgpu_num_sched_per_core                    2 # Number of warp schedulers per core
-gpgpu_max_insn_issue_per_warp                    1 # Max number of instructions that can be issued per warp in one cycle by scheduler
-gpgpu_simt_core_sim_order                    1 # Select the simulation order of cores in a cluster (0=Fix, 1=Round-Robin)
-gpgpu_pipeline_widths        2,1,1,2,1,1,2 # Pipeline widths ID_OC_SP,ID_OC_SFU,ID_OC_MEM,OC_EX_SP,OC_EX_SFU,OC_EX_MEM,EX_WB
-gpgpu_num_sp_units                     2 # Number of SP units (default=1)
-gpgpu_num_sfu_units                    1 # Number of SF units (default=1)
-gpgpu_num_mem_units                    1 # Number if ldst units (default=1) WARNING: not hooked up to anything
-gpgpu_scheduler                      gto # Scheduler configuration: < lrr | gto | two_level_active > If two_level_active:<num_active_warps>:<inner_prioritization>:<outer_prioritization>For complete list of prioritization values see shader.h enum scheduler_prioritization_typeDefault: gto
-gpgpu_dram_scheduler                    1 # 0 = fifo, 1 = FR-FCFS (defaul)
-gpgpu_dram_partition_queues              8:8:8:8 # i2$:$2d:d2$:$2i
-l2_ideal                               0 # Use a ideal L2 cache that always hit
-gpgpu_cache:dl2     64:128:4,L:B:m:W:L,A:32:4,4:0,32 # unified banked L2 data cache config  {<nsets>:<bsize>:<assoc>,<rep>:<wr>:<alloc>:<wr_alloc>,<mshr>:<N>:<merge>,<mq>}
-gpgpu_cache:dl2_texture_only                    0 # L2 cache used for texture only
-gpgpu_n_mem                            6 # number of memory modules (e.g. memory controllers) in gpu
-gpgpu_n_sub_partition_per_mchannel                    2 # number of memory subpartition in each memory module
-gpgpu_n_mem_per_ctrlr                    2 # number of memory chips per memory controller
-gpgpu_memlatency_stat                   14 # track and display latency statistics 0x2 enables MC, 0x4 enables queue logs
-gpgpu_frfcfs_dram_sched_queue_size                   16 # 0 = unlimited (default); # entries per chip
-gpgpu_dram_return_queue_size                  116 # 0 = unlimited (default); # entries per chip
-gpgpu_dram_buswidth                    4 # default = 4 bytes (8 bytes per cycle at DDR)
-gpgpu_dram_burst_length                    8 # Burst length of each DRAM request (default = 4 data bus cycle)
-dram_data_command_freq_ratio                    4 # Frequency ratio between DRAM data bus and command bus (default = 2 times, i.e. DDR)
-gpgpu_dram_timing_opt nbk=16:CCD=2:RRD=6:RCD=12:RAS=28:RP=12:RC=40: CL=12:WL=4:CDLR=5:WR=12:nbkgrp=4:CCDL=3:RTPL=2 # DRAM timing parameters = {nbk:tCCD:tRRD:tRCD:tRAS:tRP:tRC:CL:WL:tCDLR:tWR:nbkgrp:tCCDL:tRTPL}
-rop_latency                          120 # ROP queue latency (default 85)
-dram_latency                         100 # DRAM latency (default 30)
-gpgpu_mem_addr_mapping dramid@8;00000000.00000000.00000000.00000000.0000RRRR.RRRRRRRR.BBBCCCCB.CCSSSSSS # mapping memory address to dram model {dramid@<start bit>;<memory address map>}
-gpgpu_mem_addr_test                    0 # run sweep test to check address mapping for aliased address
-gpgpu_mem_address_mask                    1 # 0 = old addressing mask, 1 = new addressing mask, 2 = new add. mask + flipped bank sel and chip sel bits
-gpuwattch_xml_file  gpuwattch_gtx480.xml # GPUWattch XML file
-power_simulation_enabled                    1 # Turn on power simulator (1=On, 0=Off)
-power_per_cycle_dump                    0 # Dump detailed power output each cycle
-power_trace_enabled                    0 # produce a file for the power trace (1=On, 0=Off)
-power_trace_zlevel                     6 # Compression level of the power trace output log (0=no comp, 9=highest)
-steady_power_levels_enabled                    0 # produce a file for the steady power levels (1=On, 0=Off)
-steady_state_definition                  8:4 # allowed deviation:number of samples
-gpgpu_max_cycle                        0 # terminates gpu simulation early (0 = no limit)
-gpgpu_max_insn                         0 # terminates gpu simulation early (0 = no limit)
-gpgpu_max_cta                          0 # terminates gpu simulation early (0 = no limit)
-gpgpu_runtime_stat                   500 # display runtime statistics such as dram utilization {<freq>:<flag>}
-liveness_message_freq                    1 # Minimum number of seconds between simulation liveness messages (0 = always print)
-gpgpu_flush_l1_cache                    0 # Flush L1 cache at the end of each kernel call
-gpgpu_flush_l2_cache                    0 # Flush L2 cache at the end of each kernel call
-gpgpu_deadlock_detect                    1 # Stop the simulation at deadlock (1=on (default), 0=off)
-gpgpu_ptx_instruction_classification                    0 # if enabled will classify ptx instruction types per kernel (Max 255 kernels now)
-gpgpu_ptx_sim_mode                     0 # Select between Performance (default) or Functional simulation (1)
-gpgpu_clock_domains 700.0:700.0:700.0:924.0 # Clock Domain Frequencies in MhZ {<Core Clock>:<ICNT Clock>:<L2 Clock>:<DRAM Clock>}
-gpgpu_max_concurrent_kernel                    8 # maximum kernels that can run concurrently on GPU
-gpgpu_cflog_interval                    0 # Interval between each snapshot in control flow logger
-visualizer_enabled                     0 # Turn on visualizer output (1=On, 0=Off)
-visualizer_outputfile                 NULL # Specifies the output log file for visualizer
-visualizer_zlevel                      6 # Compression level of the visualizer output log (0=no comp, 9=highest)
-trace_enabled                          0 # Turn on traces
-trace_components                    none # comma seperated list of traces to enable. Complete list found in trace_streams.tup. Default none
-trace_sampling_core                    0 # The core which is printed using CORE_DPRINTF. Default 0
-trace_sampling_memory_partition                   -1 # The memory partition which is printed using MEMPART_DPRINTF. Default -1 (i.e. all)
-enable_ptx_file_line_stats                    1 # Turn on PTX source line statistic profiling. (1 = On)
-ptx_line_stats_filename gpgpu_inst_stats.txt # Output file for PTX source line statistics.
-save_embedded_ptx                      0 # saves ptx files embedded in binary as <n>.ptx
-keep                                   0 # keep intermediate files created by GPGPU-Sim when interfacing with external programs
-gpgpu_ptx_save_converted_ptxplus                    0 # Saved converted ptxplus to a file
-ptx_opcode_latency_int         4,13,4,5,145 # Opcode latencies for integers <ADD,MAX,MUL,MAD,DIV>Default 1,1,19,25,145
-ptx_opcode_latency_fp          4,13,4,5,39 # Opcode latencies for single precision floating points <ADD,MAX,MUL,MAD,DIV>Default 1,1,1,1,30
-ptx_opcode_latency_dp         8,19,8,8,330 # Opcode latencies for double precision floating points <ADD,MAX,MUL,MAD,DIV>Default 8,8,8,8,335
-ptx_opcode_initiation_int            1,2,2,1,8 # Opcode initiation intervals for integers <ADD,MAX,MUL,MAD,DIV>Default 1,1,4,4,32
-ptx_opcode_initiation_fp            1,2,1,1,4 # Opcode initiation intervals for single precision floating points <ADD,MAX,MUL,MAD,DIV>Default 1,1,1,1,5
-ptx_opcode_initiation_dp         8,16,8,8,130 # Opcode initiation intervals for double precision floating points <ADD,MAX,MUL,MAD,DIV>Default 8,8,8,8,130
DRAM Timing Options:
nbk                                    16 # number of banks
CCD                                     2 # column to column delay
RRD                                     6 # minimal delay between activation of rows in different banks
RCD                                    12 # row to column delay
RAS                                    28 # time needed to activate row
RP                                     12 # time needed to precharge (deactivate) row
RC                                     40 # row cycle time
CDLR                                    5 # switching from write to read (changes tWTR)
WR                                     12 # last data-in to row precharge
CL                                     12 # CAS latency
WL                                      4 # Write latency
nbkgrp                                  4 # number of bank groups
CCDL                                    3 # column to column delay between accesses to different bank groups
RTPL                                    2 # read to precharge delay between accesses to different bank groups
Total number of memory sub partition = 12
addr_dec_mask[CHIP]  = 0000000000000000 	high:64 low:0
addr_dec_mask[BK]    = 000000000000e100 	high:16 low:8
addr_dec_mask[ROW]   = 000000000fff0000 	high:28 low:16
addr_dec_mask[COL]   = 0000000000001eff 	high:13 low:0
addr_dec_mask[BURST] = 000000000000003f 	high:6 low:0
sub_partition_id_mask = 0000000000000100
GPGPU-Sim uArch: clock freqs: 700000000.000000:700000000.000000:700000000.000000:924000000.000000
GPGPU-Sim uArch: clock periods: 0.00000000142857142857:0.00000000142857142857:0.00000000142857142857:0.00000000108225108225
*** Initializing Memory Statistics ***
GPGPU-Sim uArch: interconnect node map (shaderID+MemID to icntID)
GPGPU-Sim uArch: Memory nodes ID start from index: 15
GPGPU-Sim uArch:    0   1   2   3   4
GPGPU-Sim uArch:    5   6   7   8   9
GPGPU-Sim uArch:   10  11  12  13  14
GPGPU-Sim uArch:   15  16  17  18  19
GPGPU-Sim uArch:   20  21  22  23  24
GPGPU-Sim uArch:   25  26
GPGPU-Sim uArch: interconnect node reverse map (icntID to shaderID+MemID)
GPGPU-Sim uArch: Memory nodes start from ID: 15
GPGPU-Sim uArch:    0   1   2   3   4
GPGPU-Sim uArch:    5   6   7   8   9
GPGPU-Sim uArch:   10  11  12  13  14
GPGPU-Sim uArch:   15  16  17  18  19
GPGPU-Sim uArch:   20  21  22  23  24
GPGPU-Sim uArch:   25  26
2a552cef618c3eed1202856b15bdbc61  /home/scratch/adwait/applications/benchmarks/CUDA/RAY/gpgpu_ptx_sim__RAY
GPGPU-Sim uArch: performance model initialization complete.
GPGPU-Sim PTX: __cudaRegisterFatBinary, fat_cubin_handle = 1, filename=rayTracing.cu
self exe links to: /home/scratch/adwait/applications/benchmarks/CUDA/RAY/gpgpu_ptx_sim__RAY
Running md5sum using "md5sum /home/scratch/adwait/applications/benchmarks/CUDA/RAY/gpgpu_ptx_sim__RAY "
Running cuobjdump using "$CUDA_INSTALL_PATH/bin/cuobjdump -ptx -elf -sass /home/scratch/adwait/applications/benchmarks/CUDA/RAY/gpgpu_ptx_sim__RAY > _cuobjdump_complete_output_1y3f5f"
Parsing file _cuobjdump_complete_output_1y3f5f
######### cuobjdump parser ########
## Adding new section ELF
Adding arch: sm_20
Adding identifier: rayTracing.cu
## Adding new section PTX
Adding ptx filename: _cuobjdump_1.ptx
Adding arch: sm_20
Adding identifier: rayTracing.cu
Done parsing!!!
GPGPU-Sim PTX: __cudaRegisterFunction _Z6renderPjP4Nodejjff : hostFun 0x0x40d033, fat_cubin_handle = 1
GPGPU-Sim PTX: allocating stack frame region for .param "__cudaretf__Zmi6float3S_" from 0x0 to 0xc
GPGPU-Sim PTX: allocating stack frame region for .param "__cudaparmf1__Zmi6float3S_" from 0xc to 0x18
GPGPU-Sim PTX: allocating stack frame region for .param "__cudaparmf2__Zmi6float3S_" from 0x18 to 0x24
GPGPU-Sim PTX: allocating stack frame region for .param "__cudaretf__Z9normalize6float3" from 0x0 to 0xc
GPGPU-Sim PTX: allocating stack frame region for .param "__cudaparmf1__Z9normalize6float3" from 0xc to 0x18
GPGPU-Sim PTX: allocating stack frame region for .param "__cudaretf__Z18intersectionSphere5Rayon6float3f" from 0x0 to 0x4
GPGPU-Sim PTX: allocating stack frame region for .param "__cudaparmf1__Z18intersectionSphere5Rayon6float3f" from 0x4 to 0x1c
GPGPU-Sim PTX: allocating stack frame region for .param "__cudaparmf2__Z18intersectionSphere5Rayon6float3f" from 0x1c to 0x28
GPGPU-Sim PTX: allocating stack frame region for .param "__cudaparmf3__Z18intersectionSphere5Rayon6float3f" from 0x28 to 0x2c
GPGPU-Sim PTX: allocating stack frame region for .param "__cudaretf__Z16intersectionPlan5Rayon6float3S0_" from 0x0 to 0x4
GPGPU-Sim PTX: allocating stack frame region for .param "__cudaparmf1__Z16intersectionPlan5Rayon6float3S0_" from 0x4 to 0x1c
GPGPU-Sim PTX: allocating stack frame region for .param "__cudaparmf2__Z16intersectionPlan5Rayon6float3S0_" from 0x1c to 0x28
GPGPU-Sim PTX: allocating stack frame region for .param "__cudaparmf3__Z16intersectionPlan5Rayon6float3S0_" from 0x28 to 0x34
GPGPU-Sim PTX: allocating stack frame region for .param "__cudaretf__Z10getNormale6float3S_" from 0x0 to 0xc
GPGPU-Sim PTX: allocating stack frame region for .param "__cudaparmf1__Z10getNormale6float3S_" from 0xc to 0x18
GPGPU-Sim PTX: allocating stack frame region for .param "__cudaparmf2__Z10getNormale6float3S_" from 0x18 to 0x24
GPGPU-Sim PTX: allocating stack frame region for .param "__cudaretf__Z11getNormaleP6float3" from 0x0 to 0xc
GPGPU-Sim PTX: allocating stack frame region for .param "__cudaparmf1__Z11getNormaleP6float3" from 0xc to 0x18
GPGPU-Sim PTX: allocating stack frame region for .param "__cudaretf__Z14rgbaFloatToInt6float4" from 0x0 to 0x4
GPGPU-Sim PTX: allocating stack frame region for .param "__cudaparmf1__Z14rgbaFloatToInt6float4" from 0x4 to 0x14
GPGPU-Sim PTX: allocating stack frame region for .param "__cudaretf__Z12notShadowRayP4Node6float3S1_f" from 0x0 to 0x4
GPGPU-Sim PTX: allocating stack frame region for .param "__cudaparmf1__Z12notShadowRayP4Node6float3S1_f" from 0x4 to 0xc
GPGPU-Sim PTX: allocating stack frame region for .param "__cudaparmf2__Z12notShadowRayP4Node6float3S1_f" from 0xc to 0x18
GPGPU-Sim PTX: allocating stack frame region for .param "__cudaparmf3__Z12notShadowRayP4Node6float3S1_f" from 0x18 to 0x24
GPGPU-Sim PTX: allocating stack frame region for .param "__cudaparmf4__Z12notShadowRayP4Node6float3S1_f" from 0x24 to 0x28
GPGPU-Sim PTX: allocating stack frame region for .param "__cudaretf__Z15float2int_pow20f" from 0x0 to 0x4
GPGPU-Sim PTX: allocating stack frame region for .param "__cudaparmf1__Z15float2int_pow20f" from 0x4 to 0x8
GPGPU-Sim PTX: allocating stack frame region for .param "__cudaretf__Z15float2int_pow50f" from 0x0 to 0x4
GPGPU-Sim PTX: allocating stack frame region for .param "__cudaparmf1__Z15float2int_pow50f" from 0x4 to 0x8
GPGPU-Sim PTX: allocating stack frame region for .param "__cudaparmf1__ZN4dim3C1Ejjj" from 0x0 to 0x8
GPGPU-Sim PTX: allocating stack frame region for .param "__cudaparmf2__ZN4dim3C1Ejjj" from 0x8 to 0xc
GPGPU-Sim PTX: allocating stack frame region for .param "__cudaparmf3__ZN4dim3C1Ejjj" from 0xc to 0x10
GPGPU-Sim PTX: allocating stack frame region for .param "__cudaparmf4__ZN4dim3C1Ejjj" from 0x10 to 0x14
GPGPU-Sim PTX: instruction assembly for function '_Zmi6float3S_'...   done.
GPGPU-Sim PTX: finding reconvergence points for '_Zmi6float3S_'...
GPGPU-Sim PTX: Finding dominators for '_Zmi6float3S_'...
GPGPU-Sim PTX: Finding immediate dominators for '_Zmi6float3S_'...
GPGPU-Sim PTX: Finding postdominators for '_Zmi6float3S_'...
GPGPU-Sim PTX: Finding immediate postdominators for '_Zmi6float3S_'...
GPGPU-Sim PTX: pre-decoding instructions for '_Zmi6float3S_'...
GPGPU-Sim PTX: reconvergence points for _Zmi6float3S_...
GPGPU-Sim PTX: ... end of reconvergence points for _Zmi6float3S_
GPGPU-Sim PTX: ... done pre-decoding instructions for '_Zmi6float3S_'.
GPGPU-Sim PTX: instruction assembly for function '_Z9normalize6float3'...   done.
GPGPU-Sim PTX: finding reconvergence points for '_Z9normalize6float3'...
GPGPU-Sim PTX: Finding dominators for '_Z9normalize6float3'...
GPGPU-Sim PTX: Finding immediate dominators for '_Z9normalize6float3'...
GPGPU-Sim PTX: Finding postdominators for '_Z9normalize6float3'...
GPGPU-Sim PTX: Finding immediate postdominators for '_Z9normalize6float3'...
GPGPU-Sim PTX: pre-decoding instructions for '_Z9normalize6float3'...
GPGPU-Sim PTX: reconvergence points for _Z9normalize6float3...
GPGPU-Sim PTX: ... end of reconvergence points for _Z9normalize6float3
GPGPU-Sim PTX: ... done pre-decoding instructions for '_Z9normalize6float3'.
GPGPU-Sim PTX: instruction assembly for function '_Z18intersectionSphere5Rayon6float3f'...   done.
GPGPU-Sim PTX: finding reconvergence points for '_Z18intersectionSphere5Rayon6float3f'...
GPGPU-Sim PTX: Finding dominators for '_Z18intersectionSphere5Rayon6float3f'...
GPGPU-Sim PTX: Finding immediate dominators for '_Z18intersectionSphere5Rayon6float3f'...
GPGPU-Sim PTX: Finding postdominators for '_Z18intersectionSphere5Rayon6float3f'...
GPGPU-Sim PTX: Finding immediate postdominators for '_Z18intersectionSphere5Rayon6float3f'...
GPGPU-Sim PTX: pre-decoding instructions for '_Z18intersectionSphere5Rayon6float3f'...
GPGPU-Sim PTX: reconvergence points for _Z18intersectionSphere5Rayon6float3f...
GPGPU-Sim PTX:  1 (potential) branch divergence @  PC=0x250 (_1.ptx:173) @%p2 bra $Lt_2_3074;
GPGPU-Sim PTX:    immediate post dominator      @  PC=0x2c0 (_1.ptx:193) mov.f32 %f39, %f32;
GPGPU-Sim PTX:  2 (potential) branch divergence @  PC=0x260 (_1.ptx:175) bra.uni $Lt_2_2818;
GPGPU-Sim PTX:    immediate post dominator      @  PC=0x2c0 (_1.ptx:193) mov.f32 %f39, %f32;
GPGPU-Sim PTX:  3 (potential) branch divergence @  PC=0x280 (_1.ptx:180) @!%p3 bra $Lt_2_3586;
GPGPU-Sim PTX:    immediate post dominator      @  PC=0x2c0 (_1.ptx:193) mov.f32 %f39, %f32;
GPGPU-Sim PTX:  4 (potential) branch divergence @  PC=0x290 (_1.ptx:182) bra.uni $Lt_2_3330;
GPGPU-Sim PTX:    immediate post dominator      @  PC=0x2c0 (_1.ptx:193) mov.f32 %f39, %f32;
GPGPU-Sim PTX: ... end of reconvergence points for _Z18intersectionSphere5Rayon6float3f
GPGPU-Sim PTX: ... done pre-decoding instructions for '_Z18intersectionSphere5Rayon6float3f'.
GPGPU-Sim PTX: instruction assembly for function '_Z16intersectionPlan5Rayon6float3S0_'...   done.
GPGPU-Sim PTX: finding reconvergence points for '_Z16intersectionPlan5Rayon6float3S0_'...
GPGPU-Sim PTX: Finding dominators for '_Z16intersectionPlan5Rayon6float3S0_'...
GPGPU-Sim PTX: Finding immediate dominators for '_Z16intersectionPlan5Rayon6float3S0_'...
GPGPU-Sim PTX: Finding postdominators for '_Z16intersectionPlan5Rayon6float3S0_'...
GPGPU-Sim PTX: Finding immediate postdominators for '_Z16intersectionPlan5Rayon6float3S0_'...
GPGPU-Sim PTX: pre-decoding instructions for '_Z16intersectionPlan5Rayon6float3S0_'...
GPGPU-Sim PTX: reconvergence points for _Z16intersectionPlan5Rayon6float3S0_...
GPGPU-Sim PTX:  1 (potential) branch divergence @  PC=0x320 (_1.ptx:214) @!%p1 bra $Lt_3_2050;
GPGPU-Sim PTX:    immediate post dominator      @  PC=0x368 (_1.ptx:227) mov.f32 %f14, %f9;
GPGPU-Sim PTX:  2 (potential) branch divergence @  PC=0x330 (_1.ptx:216) bra.uni $Lt_3_1794;
GPGPU-Sim PTX:    immediate post dominator      @  PC=0x368 (_1.ptx:227) mov.f32 %f14, %f9;
GPGPU-Sim PTX: ... end of reconvergence points for _Z16intersectionPlan5Rayon6float3S0_
GPGPU-Sim PTX: ... done pre-decoding instructions for '_Z16intersectionPlan5Rayon6float3S0_'.
GPGPU-Sim PTX: instruction assembly for function '_Z10getNormale6float3S_'...   done.
GPGPU-Sim PTX: finding reconvergence points for '_Z10getNormale6float3S_'...
GPGPU-Sim PTX: Finding dominators for '_Z10getNormale6float3S_'...
GPGPU-Sim PTX: Finding immediate dominators for '_Z10getNormale6float3S_'...
GPGPU-Sim PTX: Finding postdominators for '_Z10getNormale6float3S_'...
GPGPU-Sim PTX: Finding immediate postdominators for '_Z10getNormale6float3S_'...
GPGPU-Sim PTX: pre-decoding instructions for '_Z10getNormale6float3S_'...
GPGPU-Sim PTX: reconvergence points for _Z10getNormale6float3S_...
GPGPU-Sim PTX: ... end of reconvergence points for _Z10getNormale6float3S_
GPGPU-Sim PTX: ... done pre-decoding instructions for '_Z10getNormale6float3S_'.
GPGPU-Sim PTX: instruction assembly for function '_Z11getNormaleP6float3'...   done.
GPGPU-Sim PTX: finding reconvergence points for '_Z11getNormaleP6float3'...
GPGPU-Sim PTX: Finding dominators for '_Z11getNormaleP6float3'...
GPGPU-Sim PTX: Finding immediate dominators for '_Z11getNormaleP6float3'...
GPGPU-Sim PTX: Finding postdominators for '_Z11getNormaleP6float3'...
GPGPU-Sim PTX: Finding immediate postdominators for '_Z11getNormaleP6float3'...
GPGPU-Sim PTX: pre-decoding instructions for '_Z11getNormaleP6float3'...
GPGPU-Sim PTX: reconvergence points for _Z11getNormaleP6float3...
GPGPU-Sim PTX: ... end of reconvergence points for _Z11getNormaleP6float3
GPGPU-Sim PTX: ... done pre-decoding instructions for '_Z11getNormaleP6float3'.
GPGPU-Sim PTX: instruction assembly for function '_Z14rgbaFloatToInt6float4'...   done.
GPGPU-Sim PTX: finding reconvergence points for '_Z14rgbaFloatToInt6float4'...
GPGPU-Sim PTX: Finding dominators for '_Z14rgbaFloatToInt6float4'...
GPGPU-Sim PTX: Finding immediate dominators for '_Z14rgbaFloatToInt6float4'...
GPGPU-Sim PTX: Finding postdominators for '_Z14rgbaFloatToInt6float4'...
GPGPU-Sim PTX: Finding immediate postdominators for '_Z14rgbaFloatToInt6float4'...
GPGPU-Sim PTX: pre-decoding instructions for '_Z14rgbaFloatToInt6float4'...
GPGPU-Sim PTX: reconvergence points for _Z14rgbaFloatToInt6float4...
GPGPU-Sim PTX: ... end of reconvergence points for _Z14rgbaFloatToInt6float4
GPGPU-Sim PTX: ... done pre-decoding instructions for '_Z14rgbaFloatToInt6float4'.
GPGPU-Sim PTX: allocating global region for "cnode" from 0x100 to 0x1a0 (global memory space)
GPGPU-Sim PTX: instruction assembly for function '_Z12notShadowRayP4Node6float3S1_f'...   done.
GPGPU-Sim PTX: finding reconvergence points for '_Z12notShadowRayP4Node6float3S1_f'...
GPGPU-Sim PTX: Finding dominators for '_Z12notShadowRayP4Node6float3S1_f'...
GPGPU-Sim PTX: Finding immediate dominators for '_Z12notShadowRayP4Node6float3S1_f'...
GPGPU-Sim PTX: Finding postdominators for '_Z12notShadowRayP4Node6float3S1_f'...
GPGPU-Sim PTX: Finding immediate postdominators for '_Z12notShadowRayP4Node6float3S1_f'...
GPGPU-Sim PTX: pre-decoding instructions for '_Z12notShadowRayP4Node6float3S1_f'...
GPGPU-Sim PTX: reconvergence points for _Z12notShadowRayP4Node6float3S1_f...
GPGPU-Sim PTX:  1 (potential) branch divergence @  PC=0x638 (_1.ptx:364) @%p1 bra $Lt_7_8450;
GPGPU-Sim PTX:    immediate post dominator      @  PC=0x828 (_1.ptx:441) mov.f32 %f58, 0f00000000;    // 0
GPGPU-Sim PTX:  2 (potential) branch divergence @  PC=0x658 (_1.ptx:369) @!%p2 bra $Lt_7_8962;
GPGPU-Sim PTX:    immediate post dominator      @  PC=0x6b8 (_1.ptx:385) mov.f32 %f28, %f20;
GPGPU-Sim PTX:  3 (potential) branch divergence @  PC=0x668 (_1.ptx:371) bra.uni $Lt_7_8706;
GPGPU-Sim PTX:    immediate post dominator      @  PC=0x6b8 (_1.ptx:385) mov.f32 %f28, %f20;
GPGPU-Sim PTX:  4 (potential) branch divergence @  PC=0x6c0 (_1.ptx:386) bra.uni $Lt_7_8194;
GPGPU-Sim PTX:    immediate post dominator      @  PC=0x828 (_1.ptx:441) mov.f32 %f58, 0f00000000;    // 0
GPGPU-Sim PTX:  5 (potential) branch divergence @  PC=0x7b0 (_1.ptx:418) @%p5 bra $Lt_7_9474;
GPGPU-Sim PTX:    immediate post dominator      @  PC=0x820 (_1.ptx:438) mov.f32 %f28, %f51;
GPGPU-Sim PTX:  6 (potential) branch divergence @  PC=0x7c0 (_1.ptx:420) bra.uni $Lt_7_9730;
GPGPU-Sim PTX:    immediate post dominator      @  PC=0x820 (_1.ptx:438) mov.f32 %f28, %f51;
GPGPU-Sim PTX:  7 (potential) branch divergence @  PC=0x7e0 (_1.ptx:425) @!%p6 bra $Lt_7_9986;
GPGPU-Sim PTX:    immediate post dominator      @  PC=0x820 (_1.ptx:438) mov.f32 %f28, %f51;
GPGPU-Sim PTX:  8 (potential) branch divergence @  PC=0x7f0 (_1.ptx:427) bra.uni $Lt_7_9730;
GPGPU-Sim PTX:    immediate post dominator      @  PC=0x820 (_1.ptx:438) mov.f32 %f28, %f51;
GPGPU-Sim PTX:  9 (potential) branch divergence @  PC=0x838 (_1.ptx:443) @!%p7 bra $Lt_7_10242;
GPGPU-Sim PTX:    immediate post dominator      @  PC=0x8e8 (_1.ptx:468) add.s32 %r1, %r1, 1;
GPGPU-Sim PTX: 10 (potential) branch divergence @  PC=0x8d8 (_1.ptx:463) @!%p8 bra $Lt_7_10242;
GPGPU-Sim PTX:    immediate post dominator      @  PC=0x8e8 (_1.ptx:468) add.s32 %r1, %r1, 1;
GPGPU-Sim PTX: 11 (potential) branch divergence @  PC=0x908 (_1.ptx:472) @%p9 bra $Lt_7_10754;
GPGPU-Sim PTX:    immediate post dominator      @  PC=0x960 (_1.ptx:486) selp.s32 %r10, 1, 0, %p11;
GPGPU-Sim PTX: 12 (potential) branch divergence @  PC=0x930 (_1.ptx:477) @%p10 bra $L_7_7170;
GPGPU-Sim PTX:    immediate post dominator      @  PC=0x960 (_1.ptx:486) selp.s32 %r10, 1, 0, %p11;
GPGPU-Sim PTX: 13 (potential) branch divergence @  PC=0x938 (_1.ptx:478) bra.uni $L_7_7938;
GPGPU-Sim PTX:    immediate post dominator      @  PC=0x960 (_1.ptx:486) selp.s32 %r10, 1, 0, %p11;
GPGPU-Sim PTX: ... end of reconvergence points for _Z12notShadowRayP4Node6float3S1_f
GPGPU-Sim PTX: ... done pre-decoding instructions for '_Z12notShadowRayP4Node6float3S1_f'.
GPGPU-Sim PTX: instruction assembly for function '_Z15float2int_pow20f'...   done.
GPGPU-Sim PTX: finding reconvergence points for '_Z15float2int_pow20f'...
GPGPU-Sim PTX: Finding dominators for '_Z15float2int_pow20f'...
GPGPU-Sim PTX: Finding immediate dominators for '_Z15float2int_pow20f'...
GPGPU-Sim PTX: Finding postdominators for '_Z15float2int_pow20f'...
GPGPU-Sim PTX: Finding immediate postdominators for '_Z15float2int_pow20f'...
GPGPU-Sim PTX: pre-decoding instructions for '_Z15float2int_pow20f'...
GPGPU-Sim PTX: reconvergence points for _Z15float2int_pow20f...
GPGPU-Sim PTX: ... end of reconvergence points for _Z15float2int_pow20f
GPGPU-Sim PTX: ... done pre-decoding instructions for '_Z15float2int_pow20f'.
GPGPU-Sim PTX: instruction assembly for function '_Z15float2int_pow50f'...   done.
GPGPU-Sim PTX: finding reconvergence points for '_Z15float2int_pow50f'...
GPGPU-Sim PTX: Finding dominators for '_Z15float2int_pow50f'...
GPGPU-Sim PTX: Finding immediate dominators for '_Z15float2int_pow50f'...
GPGPU-Sim PTX: Finding postdominators for '_Z15float2int_pow50f'...
GPGPU-Sim PTX: Finding immediate postdominators for '_Z15float2int_pow50f'...
GPGPU-Sim PTX: pre-decoding instructions for '_Z15float2int_pow50f'...
GPGPU-Sim PTX: reconvergence points for _Z15float2int_pow50f...
GPGPU-Sim PTX: ... end of reconvergence points for _Z15float2int_pow50f
GPGPU-Sim PTX: ... done pre-decoding instructions for '_Z15float2int_pow50f'.
GPGPU-Sim PTX: allocating constant region for "MView" from 0x200 to 0x230 (global memory space) 1
GPGPU-Sim PTX: allocating stack frame region for .local "__cuda___cuda_local_var_36206_9_non_const_pile_32240" from 0x0 to 0x50
GPGPU-Sim PTX: instruction assembly for function '_Z6renderPjP4Nodejjff'...   done.
GPGPU-Sim PTX: finding reconvergence points for '_Z6renderPjP4Nodejjff'...
GPGPU-Sim PTX: Finding dominators for '_Z6renderPjP4Nodejjff'...
GPGPU-Sim PTX: Finding immediate dominators for '_Z6renderPjP4Nodejjff'...
GPGPU-Sim PTX: Finding postdominators for '_Z6renderPjP4Nodejjff'...
GPGPU-Sim PTX: Finding immediate postdominators for '_Z6renderPjP4Nodejjff'...
GPGPU-Sim PTX: pre-decoding instructions for '_Z6renderPjP4Nodejjff'...
GPGPU-Sim PTX: reconvergence points for _Z6renderPjP4Nodejjff...
GPGPU-Sim PTX:  1 (potential) branch divergence @  PC=0xdb0 (_1.ptx:663) @%p1 bra $Lt_10_44034;
GPGPU-Sim PTX:    immediate post dominator      @  PC=0x2370 (_1.ptx:1495) exit;
GPGPU-Sim PTX:  2 (potential) branch divergence @  PC=0x1028 (_1.ptx:751) @%p2 bra $Lt_10_45570;
GPGPU-Sim PTX:    immediate post dominator      @  PC=0x11b8 (_1.ptx:815) mov.f32 %f108, 0f00000000;   // 0
GPGPU-Sim PTX:  3 (potential) branch divergence @  PC=0x1048 (_1.ptx:756) @!%p3 bra $Lt_10_46082;
GPGPU-Sim PTX:    immediate post dominator      @  PC=0x1090 (_1.ptx:769) mov.f32 %f87, %f82;
GPGPU-Sim PTX:  4 (potential) branch divergence @  PC=0x1058 (_1.ptx:758) bra.uni $Lt_10_45826;
GPGPU-Sim PTX:    immediate post dominator      @  PC=0x1090 (_1.ptx:769) mov.f32 %f87, %f82;
GPGPU-Sim PTX:  5 (potential) branch divergence @  PC=0x1098 (_1.ptx:770) bra.uni $Lt_10_45314;
GPGPU-Sim PTX:    immediate post dominator      @  PC=0x11b8 (_1.ptx:815) mov.f32 %f108, 0f00000000;   // 0
GPGPU-Sim PTX:  6 (potential) branch divergence @  PC=0x1140 (_1.ptx:793) @%p6 bra $Lt_10_46594;
GPGPU-Sim PTX:    immediate post dominator      @  PC=0x11b0 (_1.ptx:813) mov.f32 %f87, %f101;
GPGPU-Sim PTX:  7 (potential) branch divergence @  PC=0x1150 (_1.ptx:795) bra.uni $Lt_10_46850;
GPGPU-Sim PTX:    immediate post dominator      @  PC=0x11b0 (_1.ptx:813) mov.f32 %f87, %f101;
GPGPU-Sim PTX:  8 (potential) branch divergence @  PC=0x1170 (_1.ptx:800) @!%p7 bra $Lt_10_47106;
GPGPU-Sim PTX:    immediate post dominator      @  PC=0x11b0 (_1.ptx:813) mov.f32 %f87, %f101;
GPGPU-Sim PTX:  9 (potential) branch divergence @  PC=0x1180 (_1.ptx:802) bra.uni $Lt_10_46850;
GPGPU-Sim PTX:    immediate post dominator      @  PC=0x11b0 (_1.ptx:813) mov.f32 %f87, %f101;
GPGPU-Sim PTX: 10 (potential) branch divergence @  PC=0x11f8 (_1.ptx:823) @%p8 bra $Lt_10_47362;
GPGPU-Sim PTX:    immediate post dominator      @  PC=0x1210 (_1.ptx:829) add.s32 %r25, %r25, 1;
GPGPU-Sim PTX: 11 (potential) branch divergence @  PC=0x1230 (_1.ptx:833) @%p9 bra $Lt_10_45058;
GPGPU-Sim PTX:    immediate post dominator      @  PC=0x1238 (_1.ptx:834) mov.f32 %f109, 0f00000000;   // 0
GPGPU-Sim PTX: 12 (potential) branch divergence @  PC=0x1280 (_1.ptx:843) @%p10 bra $Lt_10_48130;
GPGPU-Sim PTX:    immediate post dominator      @  PC=0x2140 (_1.ptx:1416) add.s32 %r23, %r23, 1;
GPGPU-Sim PTX: 13 (potential) branch divergence @  PC=0x1330 (_1.ptx:868) @%p11 bra $Lt_10_48898;
GPGPU-Sim PTX:    immediate post dominator      @  PC=0x13b8 (_1.ptx:888) sub.f32 %f136, %f21, %f119;
GPGPU-Sim PTX: 14 (potential) branch divergence @  PC=0x1350 (_1.ptx:873) bra.uni $Lt_10_48642;
GPGPU-Sim PTX:    immediate post dominator      @  PC=0x13b8 (_1.ptx:888) sub.f32 %f136, %f21, %f119;
GPGPU-Sim PTX: 15 (potential) branch divergence @  PC=0x1430 (_1.ptx:903) @!%p12 bra $Lt_10_49410;
GPGPU-Sim PTX:    immediate post dominator      @  PC=0x1470 (_1.ptx:915) mov.f32 %f153, 0f3d4ccccd;   // 0.05
GPGPU-Sim PTX: 16 (potential) branch divergence @  PC=0x1450 (_1.ptx:908) bra.uni $Lt_10_49154;
GPGPU-Sim PTX:    immediate post dominator      @  PC=0x1470 (_1.ptx:915) mov.f32 %f153, 0f3d4ccccd;   // 0.05
GPGPU-Sim PTX: 17 (potential) branch divergence @  PC=0x1578 (_1.ptx:949) @!%p13 bra $Lt_10_58114;
GPGPU-Sim PTX:    immediate post dominator      @  PC=0x2080 (_1.ptx:1388) add.f32 %f399, %f126, %f126;
GPGPU-Sim PTX: 18 (potential) branch divergence @  PC=0x15c0 (_1.ptx:961) @%p14 bra $Lt_10_49922;
GPGPU-Sim PTX:    immediate post dominator      @  PC=0x17b0 (_1.ptx:1039) mov.f32 %f221, 0f00000000;   // 0
GPGPU-Sim PTX: 19 (potential) branch divergence @  PC=0x15e0 (_1.ptx:966) @!%p15 bra $Lt_10_50434;
GPGPU-Sim PTX:    immediate post dominator      @  PC=0x1638 (_1.ptx:982) mov.f32 %f190, %f183;
GPGPU-Sim PTX: 20 (potential) branch divergence @  PC=0x15f0 (_1.ptx:968) bra.uni $Lt_10_50178;
GPGPU-Sim PTX:    immediate post dominator      @  PC=0x1638 (_1.ptx:982) mov.f32 %f190, %f183;
GPGPU-Sim PTX: 21 (potential) branch divergence @  PC=0x1640 (_1.ptx:983) bra.uni $Lt_10_49666;
GPGPU-Sim PTX:    immediate post dominator      @  PC=0x17b0 (_1.ptx:1039) mov.f32 %f221, 0f00000000;   // 0
GPGPU-Sim PTX: 22 (potential) branch divergence @  PC=0x1738 (_1.ptx:1016) @%p18 bra $Lt_10_50946;
GPGPU-Sim PTX:    immediate post dominator      @  PC=0x17a8 (_1.ptx:1036) mov.f32 %f190, %f214;
GPGPU-Sim PTX: 23 (potential) branch divergence @  PC=0x1748 (_1.ptx:1018) bra.uni $Lt_10_51202;
GPGPU-Sim PTX:    immediate post dominator      @  PC=0x17a8 (_1.ptx:1036) mov.f32 %f190, %f214;
GPGPU-Sim PTX: 24 (potential) branch divergence @  PC=0x1768 (_1.ptx:1023) @!%p19 bra $Lt_10_51458;
GPGPU-Sim PTX:    immediate post dominator      @  PC=0x17a8 (_1.ptx:1036) mov.f32 %f190, %f214;
GPGPU-Sim PTX: 25 (potential) branch divergence @  PC=0x1778 (_1.ptx:1025) bra.uni $Lt_10_51202;
GPGPU-Sim PTX:    immediate post dominator      @  PC=0x17a8 (_1.ptx:1036) mov.f32 %f190, %f214;
GPGPU-Sim PTX: 26 (potential) branch divergence @  PC=0x17c0 (_1.ptx:1041) @!%p20 bra $Lt_10_58370;
GPGPU-Sim PTX:    immediate post dominator      @  PC=0x1828 (_1.ptx:1057) add.s32 %r50, %r50, 1;
GPGPU-Sim PTX: 27 (potential) branch divergence @  PC=0x1818 (_1.ptx:1052) @!%p21 bra $Lt_10_58370;
GPGPU-Sim PTX:    immediate post dominator      @  PC=0x1828 (_1.ptx:1057) add.s32 %r50, %r50, 1;
GPGPU-Sim PTX: 28 (potential) branch divergence @  PC=0x1848 (_1.ptx:1061) @%p22 bra $Lt_10_58882;
GPGPU-Sim PTX:    immediate post dominator      @  PC=0x1880 (_1.ptx:1071) @!%p23 bra $Lt_10_58114;
GPGPU-Sim PTX: 29 (potential) branch divergence @  PC=0x1860 (_1.ptx:1064) @%p23 bra $L_10_42498;
GPGPU-Sim PTX:    immediate post dominator      @  PC=0x1880 (_1.ptx:1071) @!%p23 bra $Lt_10_58114;
GPGPU-Sim PTX: 30 (potential) branch divergence @  PC=0x1868 (_1.ptx:1065) bra.uni $L_10_43266;
GPGPU-Sim PTX:    immediate post dominator      @  PC=0x1880 (_1.ptx:1071) @!%p23 bra $Lt_10_58114;
GPGPU-Sim PTX: 31 (potential) branch divergence @  PC=0x1880 (_1.ptx:1071) @!%p23 bra $Lt_10_58114;
GPGPU-Sim PTX:    immediate post dominator      @  PC=0x2080 (_1.ptx:1388) add.f32 %f399, %f126, %f126;
GPGPU-Sim PTX: 32 (potential) branch divergence @  PC=0x19c8 (_1.ptx:1115) @!%p24 bra $Lt_10_51714;
GPGPU-Sim PTX:    immediate post dominator      @  PC=0x2040 (_1.ptx:1375) mov.f32 %f394, 0f3f4ccccd;   // 0.8
GPGPU-Sim PTX: 33 (potential) branch divergence @  PC=0x19d8 (_1.ptx:1118) bra.uni $LDWendi___isnanf_192_1;
GPGPU-Sim PTX:    immediate post dominator      @  PC=0x2040 (_1.ptx:1375) mov.f32 %f394, 0f3f4ccccd;   // 0.8
GPGPU-Sim PTX: 34 (potential) branch divergence @  PC=0x19f8 (_1.ptx:1124) @!%p25 bra $Lt_10_7682;
GPGPU-Sim PTX:    immediate post dominator      @  PC=0x2040 (_1.ptx:1375) mov.f32 %f394, 0f3f4ccccd;   // 0.8
GPGPU-Sim PTX: 35 (potential) branch divergence @  PC=0x1a00 (_1.ptx:1125) bra.uni $Lt_10_7938;
GPGPU-Sim PTX:    immediate post dominator      @  PC=0x1a20 (_1.ptx:1133) mov.f32 %f272, 0f7f800000;   // ((1.0F)/(0.0F))
GPGPU-Sim PTX: 36 (potential) branch divergence @  PC=0x1a18 (_1.ptx:1130) bra.uni $LDWendi___isnanf_192_1;
GPGPU-Sim PTX:    immediate post dominator      @  PC=0x2040 (_1.ptx:1375) mov.f32 %f394, 0f3f4ccccd;   // 0.8
GPGPU-Sim PTX: 37 (potential) branch divergence @  PC=0x1a30 (_1.ptx:1135) @!%p26 bra $Lt_10_52226;
GPGPU-Sim PTX:    immediate post dominator      @  PC=0x2040 (_1.ptx:1375) mov.f32 %f394, 0f3f4ccccd;   // 0.8
GPGPU-Sim PTX: 38 (potential) branch divergence @  PC=0x1a40 (_1.ptx:1138) bra.uni $LDWendi___isnanf_192_1;
GPGPU-Sim PTX:    immediate post dominator      @  PC=0x2040 (_1.ptx:1375) mov.f32 %f394, 0f3f4ccccd;   // 0.8
GPGPU-Sim PTX: 39 (potential) branch divergence @  PC=0x1a58 (_1.ptx:1142) @!%p27 bra $Lt_10_52738;
GPGPU-Sim PTX:    immediate post dominator      @  PC=0x2040 (_1.ptx:1375) mov.f32 %f394, 0f3f4ccccd;   // 0.8
GPGPU-Sim PTX: 40 (potential) branch divergence @  PC=0x1ab8 (_1.ptx:1155) bra.uni $LDWendi___isnanf_192_1;
GPGPU-Sim PTX:    immediate post dominator      @  PC=0x2040 (_1.ptx:1375) mov.f32 %f394, 0f3f4ccccd;   // 0.8
GPGPU-Sim PTX: 41 (potential) branch divergence @  PC=0x1ad0 (_1.ptx:1159) @!%p29 bra $Lt_10_53250;
GPGPU-Sim PTX:    immediate post dominator      @  PC=0x2040 (_1.ptx:1375) mov.f32 %f394, 0f3f4ccccd;   // 0.8
GPGPU-Sim PTX: 42 (potential) branch divergence @  PC=0x1b20 (_1.ptx:1170) @!%p30 bra $Lt_10_53762;
GPGPU-Sim PTX:    immediate post dominator      @  PC=0x1b40 (_1.ptx:1177) mov.f32 %f268, %f284;
GPGPU-Sim PTX: 43 (potential) branch divergence @  PC=0x1b48 (_1.ptx:1178) bra.uni $LDWendi___isnanf_192_1;
GPGPU-Sim PTX:    immediate post dominator      @  PC=0x2040 (_1.ptx:1375) mov.f32 %f394, 0f3f4ccccd;   // 0.8
GPGPU-Sim PTX: 44 (potential) branch divergence @  PC=0x1b60 (_1.ptx:1183) @!%p31 bra $Lt_10_59394;
GPGPU-Sim PTX:    immediate post dominator      @  PC=0x2040 (_1.ptx:1375) mov.f32 %f394, 0f3f4ccccd;   // 0.8
GPGPU-Sim PTX: 45 (potential) branch divergence @  PC=0x1b88 (_1.ptx:1188) @!%p32 bra $Lt_10_59394;
GPGPU-Sim PTX:    immediate post dominator      @  PC=0x2040 (_1.ptx:1375) mov.f32 %f394, 0f3f4ccccd;   // 0.8
GPGPU-Sim PTX: 46 (potential) branch divergence @  PC=0x1ba0 (_1.ptx:1192) bra.uni $LDWendi___isnanf_192_1;
GPGPU-Sim PTX:    immediate post dominator      @  PC=0x2040 (_1.ptx:1375) mov.f32 %f394, 0f3f4ccccd;   // 0.8
GPGPU-Sim PTX: 47 (potential) branch divergence @  PC=0x1bd8 (_1.ptx:1202) @%p33 bra $Lt_10_54530;
GPGPU-Sim PTX:    immediate post dominator      @  PC=0x1c20 (_1.ptx:1216) sub.s32 %r64, %r64, 127;
GPGPU-Sim PTX: 48 (potential) branch divergence @  PC=0x1c10 (_1.ptx:1211) bra.uni $Lt_10_54274;
GPGPU-Sim PTX:    immediate post dominator      @  PC=0x1c20 (_1.ptx:1216) sub.s32 %r64, %r64, 127;
GPGPU-Sim PTX: 49 (potential) branch divergence @  PC=0x1c58 (_1.ptx:1224) @!%p34 bra $Lt_10_54786;
GPGPU-Sim PTX:    immediate post dominator      @  PC=0x1c78 (_1.ptx:1232) mov.f32 %f302, 0fbf800000;   // -1
GPGPU-Sim PTX: 50 (potential) branch divergence @  PC=0x1eb0 (_1.ptx:1312) @%p35 bra $Lt_10_55298;
GPGPU-Sim PTX:    immediate post dominator      @  PC=0x1ed8 (_1.ptx:1321) mov.f32 %f367, %f365;
GPGPU-Sim PTX: 51 (potential) branch divergence @  PC=0x1f98 (_1.ptx:1346) @!%p38 bra $Lt_10_55810;
GPGPU-Sim PTX:    immediate post dominator      @  PC=0x1fa8 (_1.ptx:1351) mov.f32 %f284, %f386;
GPGPU-Sim PTX: 52 (potential) branch divergence @  PC=0x2018 (_1.ptx:1365) @%p39 bra $Lt_10_56322;
GPGPU-Sim PTX:    immediate post dominator      @  PC=0x2038 (_1.ptx:1372) mov.f32 %f268, %f284;
GPGPU-Sim PTX: 53 (potential) branch divergence @  PC=0x2158 (_1.ptx:1419) @%p40 bra $L_10_42242;
GPGPU-Sim PTX:    immediate post dominator      @  PC=0x2170 (_1.ptx:1424) sub.s32 %r86, %r24, 1;
GPGPU-Sim PTX: 54 (potential) branch divergence @  PC=0x2168 (_1.ptx:1421) @%p41 bra $L_10_41474;
GPGPU-Sim PTX:    immediate post dominator      @  PC=0x2170 (_1.ptx:1424) sub.s32 %r86, %r24, 1;
GPGPU-Sim PTX: 55 (potential) branch divergence @  PC=0x2190 (_1.ptx:1428) @%p42 bra $Lt_10_56834;
GPGPU-Sim PTX:    immediate post dominator      @  PC=0x2288 (_1.ptx:1464) ld.global.u32 %r92, [%rd4+0];
GPGPU-Sim PTX: 56 (potential) branch divergence @  PC=0x2280 (_1.ptx:1461) @%p43 bra $Lt_10_57346;
GPGPU-Sim PTX:    immediate post dominator      @  PC=0x2288 (_1.ptx:1464) ld.global.u32 %r92, [%rd4+0];
GPGPU-Sim PTX: ... end of reconvergence points for _Z6renderPjP4Nodejjff
GPGPU-Sim PTX: ... done pre-decoding instructions for '_Z6renderPjP4Nodejjff'.
GPGPU-Sim PTX: instruction assembly for function '_ZN4dim3C1Ejjj'...   done.
GPGPU-Sim PTX: finding reconvergence points for '_ZN4dim3C1Ejjj'...
GPGPU-Sim PTX: Finding dominators for '_ZN4dim3C1Ejjj'...
GPGPU-Sim PTX: Finding immediate dominators for '_ZN4dim3C1Ejjj'...
GPGPU-Sim PTX: Finding postdominators for '_ZN4dim3C1Ejjj'...
GPGPU-Sim PTX: Finding immediate postdominators for '_ZN4dim3C1Ejjj'...
GPGPU-Sim PTX: pre-decoding instructions for '_ZN4dim3C1Ejjj'...
GPGPU-Sim PTX: reconvergence points for _ZN4dim3C1Ejjj...
GPGPU-Sim PTX: ... end of reconvergence points for _ZN4dim3C1Ejjj
GPGPU-Sim PTX: ... done pre-decoding instructions for '_ZN4dim3C1Ejjj'.
GPGPU-Sim PTX: finished parsing EMBEDDED .ptx file _1.ptx
Adding _cuobjdump_1.ptx with cubin handle 1
GPGPU-Sim PTX: extracting embedded .ptx to temporary file "_ptx_OcRAMT"
Running: cat _ptx_OcRAMT | sed 's/.version 1.5/.version 1.4/' | sed 's/, texmode_independent//' | sed 's/\(\.extern \.const\[1\] .b8 \w\+\)\[\]/\1\[1\]/' | sed 's/const\[.\]/const\[0\]/g' > _ptx2_gNavux
GPGPU-Sim PTX: generating ptxinfo using "$CUDA_INSTALL_PATH/bin/ptxas --gpu-name=sm_20 -v _ptx2_gNavux --output-file  /dev/null 2> _ptx_OcRAMTinfo"
GPGPU-Sim PTX: Kernel '_Z6renderPjP4Nodejjff' : regs=45, lmem=4, smem=0, cmem=180
GPGPU-Sim PTX: removing ptxinfo using "rm -f _ptx_OcRAMT _ptx2_gNavux _ptx_OcRAMTinfo"
GPGPU-Sim PTX: loading globals with explicit initializers... 
GPGPU-Sim PTX: finished loading globals (0 bytes total).
GPGPU-Sim PTX: loading constants with explicit initializers...  done.
GPGPU-Sim PTX: __cudaRegisterVar: hostVar = 0x632880; deviceAddress = MView; deviceName = MView
GPGPU-Sim PTX: __cudaRegisterVar: Registering const memory space of 48 bytes
GPGPU-Sim PTX registering constant MView (48 bytes) to name mapping
GPGPU-Sim PTX: __cudaRegisterVar: hostVar = 0x6328c0; deviceAddress = cnode; deviceName = cnode
GPGPU-Sim PTX: __cudaRegisterVar: Registering const memory space of 160 bytes
GPGPU-Sim PTX registering constant cnode (160 bytes) to name mapping
GPGPU-Sim PTX: cudaMemcpyToSymbol: symbol = 0x6328c0
GPGPU-Sim PTX: starting gpgpu_ptx_sim_memcpy_symbol with hostVar 0x0x6328c0
GPGPU-Sim PTX: gpgpu_ptx_sim_memcpy_symbol: Found PTX symbol w/ hostVar=0x6328c0
GPGPU-Sim PTX: gpgpu_ptx_sim_memcpy_symbol: copying const memory 160 bytes  to  symbol cnode+0 @0x100 ...
GPGPU-Sim PTX: cudaMemcpyToSymbol: symbol = 0x632880
GPGPU-Sim PTX: starting gpgpu_ptx_sim_memcpy_symbol with hostVar 0x0x632880
GPGPU-Sim PTX: gpgpu_ptx_sim_memcpy_symbol: Found PTX symbol w/ hostVar=0x632880
GPGPU-Sim PTX: gpgpu_ptx_sim_memcpy_symbol: copying const memory 48 bytes  to  symbol MView+0 @0x200 ...

GPGPU-Sim PTX: cudaLaunch for 0x0x40d033 (mode=performance simulation) on stream 0
GPGPU-Sim PTX: pushing kernel '_Z6renderPjP4Nodejjff' to stream 0, gridDim= (16,32,1) blockDim = (16,8,1) 
kernel '_Z6renderPjP4Nodejjff' transfer to GPU hardware scheduler
GPGPU-Sim uArch: Shader 1 bind to kernel 1 '_Z6renderPjP4Nodejjff'
GPGPU-Sim uArch: CTA/core = 5, limited by: regs
GPGPU-Sim uArch: core:  1, cta: 0 initialized @(1,0)
GPGPU-Sim uArch: Shader 2 bind to kernel 1 '_Z6renderPjP4Nodejjff'
GPGPU-Sim uArch: core:  2, cta: 0 initialized @(1,0)
GPGPU-Sim uArch: Shader 3 bind to kernel 1 '_Z6renderPjP4Nodejjff'
GPGPU-Sim uArch: core:  3, cta: 0 initialized @(1,0)
GPGPU-Sim uArch: Shader 4 bind to kernel 1 '_Z6renderPjP4Nodejjff'
GPGPU-Sim uArch: core:  4, cta: 0 initialized @(1,0)
GPGPU-Sim uArch: Shader 5 bind to kernel 1 '_Z6renderPjP4Nodejjff'
GPGPU-Sim uArch: core:  5, cta: 0 initialized @(1,0)
GPGPU-Sim uArch: Shader 6 bind to kernel 1 '_Z6renderPjP4Nodejjff'
GPGPU-Sim uArch: core:  6, cta: 0 initialized @(1,0)
GPGPU-Sim uArch: Shader 7 bind to kernel 1 '_Z6renderPjP4Nodejjff'
GPGPU-Sim uArch: core:  7, cta: 0 initialized @(1,0)
GPGPU-Sim uArch: Shader 8 bind to kernel 1 '_Z6renderPjP4Nodejjff'
GPGPU-Sim uArch: core:  8, cta: 0 initialized @(1,0)
GPGPU-Sim uArch: Shader 9 bind to kernel 1 '_Z6renderPjP4Nodejjff'
GPGPU-Sim uArch: core:  9, cta: 0 initialized @(1,0)
GPGPU-Sim uArch: Shader 10 bind to kernel 1 '_Z6renderPjP4Nodejjff'
GPGPU-Sim uArch: core: 10, cta: 0 initialized @(1,0)
GPGPU-Sim uArch: Shader 11 bind to kernel 1 '_Z6renderPjP4Nodejjff'
GPGPU-Sim uArch: core: 11, cta: 0 initialized @(1,0)
GPGPU-Sim uArch: Shader 12 bind to kernel 1 '_Z6renderPjP4Nodejjff'
GPGPU-Sim uArch: core: 12, cta: 0 initialized @(1,0)
GPGPU-Sim uArch: Shader 13 bind to kernel 1 '_Z6renderPjP4Nodejjff'
GPGPU-Sim uArch: core: 13, cta: 0 initialized @(1,0)
GPGPU-Sim uArch: Shader 14 bind to kernel 1 '_Z6renderPjP4Nodejjff'
GPGPU-Sim uArch: core: 14, cta: 0 initialized @(1,0)
GPGPU-Sim uArch: Shader 0 bind to kernel 1 '_Z6renderPjP4Nodejjff'
GPGPU-Sim uArch: core:  0, cta: 0 initialized @(1,0)
GPGPU-Sim uArch: core:  1, cta: 1 initialized @(2,0)
GPGPU-Sim uArch: core:  2, cta: 1 initialized @(2,0)
GPGPU-Sim uArch: core:  3, cta: 1 initialized @(2,0)
GPGPU-Sim uArch: core:  4, cta: 1 initialized @(2,0)
GPGPU-Sim uArch: core:  5, cta: 1 initialized @(2,0)
GPGPU-Sim uArch: core:  6, cta: 1 initialized @(2,0)
GPGPU-Sim uArch: core:  7, cta: 1 initialized @(2,0)
GPGPU-Sim uArch: core:  8, cta: 1 initialized @(2,0)
GPGPU-Sim uArch: core:  9, cta: 1 initialized @(2,0)
GPGPU-Sim uArch: core: 10, cta: 1 initialized @(2,0)
GPGPU-Sim uArch: core: 11, cta: 1 initialized @(2,0)
GPGPU-Sim uArch: core: 12, cta: 1 initialized @(2,0)
GPGPU-Sim uArch: core: 13, cta: 1 initialized @(2,0)
GPGPU-Sim uArch: core: 14, cta: 1 initialized @(2,0)
GPGPU-Sim uArch: core:  0, cta: 1 initialized @(2,0)
GPGPU-Sim uArch: core:  1, cta: 2 initialized @(3,0)
GPGPU-Sim uArch: core:  2, cta: 2 initialized @(3,0)
GPGPU-Sim uArch: core:  3, cta: 2 initialized @(3,0)
GPGPU-Sim uArch: core:  4, cta: 2 initialized @(3,0)
GPGPU-Sim uArch: core:  5, cta: 2 initialized @(3,0)
GPGPU-Sim uArch: core:  6, cta: 2 initialized @(3,0)
GPGPU-Sim uArch: core:  7, cta: 2 initialized @(3,0)
GPGPU-Sim uArch: core:  8, cta: 2 initialized @(3,0)
GPGPU-Sim uArch: core:  9, cta: 2 initialized @(3,0)
GPGPU-Sim uArch: core: 10, cta: 2 initialized @(3,0)
GPGPU-Sim uArch: core: 11, cta: 2 initialized @(3,0)
GPGPU-Sim uArch: core: 12, cta: 2 initialized @(3,0)
GPGPU-Sim uArch: core: 13, cta: 2 initialized @(3,0)
GPGPU-Sim uArch: core: 14, cta: 2 initialized @(3,0)
GPGPU-Sim uArch: core:  0, cta: 2 initialized @(3,0)
GPGPU-Sim uArch: core:  1, cta: 3 initialized @(4,0)
GPGPU-Sim uArch: core:  2, cta: 3 initialized @(4,0)
GPGPU-Sim uArch: core:  3, cta: 3 initialized @(4,0)
GPGPU-Sim uArch: core:  4, cta: 3 initialized @(4,0)
GPGPU-Sim uArch: core:  5, cta: 3 initialized @(4,0)
GPGPU-Sim uArch: core:  6, cta: 3 initialized @(4,0)
GPGPU-Sim uArch: core:  7, cta: 3 initialized @(4,0)
GPGPU-Sim uArch: core:  8, cta: 3 initialized @(4,0)
GPGPU-Sim uArch: core:  9, cta: 3 initialized @(4,0)
GPGPU-Sim uArch: core: 10, cta: 3 initialized @(4,0)
GPGPU-Sim uArch: core: 11, cta: 3 initialized @(4,0)
GPGPU-Sim uArch: core: 12, cta: 3 initialized @(4,0)
GPGPU-Sim uArch: core: 13, cta: 3 initialized @(4,0)
GPGPU-Sim uArch: core: 14, cta: 3 initialized @(4,0)
GPGPU-Sim uArch: core:  0, cta: 3 initialized @(4,0)
GPGPU-Sim uArch: core:  1, cta: 4 initialized @(5,0)
GPGPU-Sim uArch: core:  2, cta: 4 initialized @(5,0)
GPGPU-Sim uArch: core:  3, cta: 4 initialized @(5,0)
GPGPU-Sim uArch: core:  4, cta: 4 initialized @(5,0)
GPGPU-Sim uArch: core:  5, cta: 4 initialized @(5,0)
GPGPU-Sim uArch: core:  6, cta: 4 initialized @(5,0)
GPGPU-Sim uArch: core:  7, cta: 4 initialized @(5,0)
GPGPU-Sim uArch: core:  8, cta: 4 initialized @(5,0)
GPGPU-Sim uArch: core:  9, cta: 4 initialized @(5,0)
GPGPU-Sim uArch: core: 10, cta: 4 initialized @(5,0)
GPGPU-Sim uArch: core: 11, cta: 4 initialized @(5,0)
GPGPU-Sim uArch: core: 12, cta: 4 initialized @(5,0)
GPGPU-Sim uArch: core: 13, cta: 4 initialized @(5,0)
GPGPU-Sim uArch: core: 14, cta: 4 initialized @(5,0)
GPGPU-Sim uArch: core:  0, cta: 4 initialized @(5,0)
GPGPU-Sim uArch: cycles simulated: 500  inst.: 36032 (ipc=72.1) sim_rate=36032 (inst/sec) elapsed = 0:0:00:01 / Wed May  1 12:44:06 2019
GPGPU-Sim PTX: 100000 instructions simulated : ctaid=(7,0,0) tid=(15,1,0)
GPGPU-Sim PTX: 200000 instructions simulated : ctaid=(7,3,0) tid=(15,5,0)
GPGPU-Sim uArch: cycles simulated: 4000  inst.: 224608 (ipc=56.2) sim_rate=112304 (inst/sec) elapsed = 0:0:00:02 / Wed May  1 12:44:08 2019
GPGPU-Sim PTX: 300000 instructions simulated : ctaid=(2,0,0) tid=(15,1,0)
GPGPU-Sim uArch: cycles simulated: 5500  inst.: 363424 (ipc=66.1) sim_rate=121141 (inst/sec) elapsed = 0:0:00:03 / Wed May  1 12:44:09 2019
GPGPU-Sim PTX: 400000 instructions simulated : ctaid=(4,0,0) tid=(15,7,0)
GPGPU-Sim PTX: 500000 instructions simulated : ctaid=(14,1,0) tid=(15,5,0)
GPGPU-Sim PTX: 600000 instructions simulated : ctaid=(14,3,0) tid=(15,5,0)
GPGPU-Sim uArch: cycles simulated: 6500  inst.: 612640 (ipc=94.3) sim_rate=153160 (inst/sec) elapsed = 0:0:00:04 / Wed May  1 12:44:10 2019
GPGPU-Sim PTX: 700000 instructions simulated : ctaid=(7,4,0) tid=(15,1,0)
GPGPU-Sim uArch: cycles simulated: 7000  inst.: 732160 (ipc=104.6) sim_rate=146432 (inst/sec) elapsed = 0:0:00:05 / Wed May  1 12:44:11 2019
GPGPU-Sim PTX: 800000 instructions simulated : ctaid=(10,2,0) tid=(15,3,0)
GPGPU-Sim PTX: 900000 instructions simulated : ctaid=(11,1,0) tid=(15,3,0)
GPGPU-Sim uArch: cycles simulated: 8000  inst.: 927136 (ipc=115.9) sim_rate=154522 (inst/sec) elapsed = 0:0:00:06 / Wed May  1 12:44:12 2019
GPGPU-Sim PTX: 1000000 instructions simulated : ctaid=(12,1,0) tid=(15,5,0)
GPGPU-Sim PTX: 1100000 instructions simulated : ctaid=(9,3,0) tid=(15,3,0)
GPGPU-Sim PTX: 1200000 instructions simulated : ctaid=(8,2,0) tid=(15,3,0)
GPGPU-Sim PTX: 1300000 instructions simulated : ctaid=(4,2,0) tid=(15,1,0)
GPGPU-Sim PTX: 1400000 instructions simulated : ctaid=(11,2,0) tid=(15,7,0)
GPGPU-Sim PTX: 1500000 instructions simulated : ctaid=(13,3,0) tid=(15,3,0)
GPGPU-Sim uArch: cycles simulated: 9500  inst.: 1525248 (ipc=160.6) sim_rate=217892 (inst/sec) elapsed = 0:0:00:07 / Wed May  1 12:44:13 2019
GPGPU-Sim PTX: 1600000 instructions simulated : ctaid=(6,2,0) tid=(15,5,0)
GPGPU-Sim PTX: 1700000 instructions simulated : ctaid=(14,0,0) tid=(15,7,0)
GPGPU-Sim PTX: 1800000 instructions simulated : ctaid=(14,0,0) tid=(15,1,0)
GPGPU-Sim PTX: 1900000 instructions simulated : ctaid=(7,0,0) tid=(15,7,0)
GPGPU-Sim PTX: 2000000 instructions simulated : ctaid=(8,2,0) tid=(15,5,0)
GPGPU-Sim PTX: 2100000 instructions simulated : ctaid=(1,0,0) tid=(15,3,0)
GPGPU-Sim PTX: 2200000 instructions simulated : ctaid=(12,2,0) tid=(15,3,0)
GPGPU-Sim uArch: cycles simulated: 10500  inst.: 2168896 (ipc=206.6) sim_rate=271112 (inst/sec) elapsed = 0:0:00:08 / Wed May  1 12:44:14 2019
GPGPU-Sim PTX: 2300000 instructions simulated : ctaid=(3,3,0) tid=(15,5,0)
GPGPU-Sim PTX: 2400000 instructions simulated : ctaid=(3,3,0) tid=(15,3,0)
GPGPU-Sim PTX: 2500000 instructions simulated : ctaid=(5,0,0) tid=(15,7,0)
GPGPU-Sim PTX: 2600000 instructions simulated : ctaid=(1,0,0) tid=(15,1,0)
GPGPU-Sim PTX: 2700000 instructions simulated : ctaid=(9,0,0) tid=(15,5,0)
GPGPU-Sim PTX: 2800000 instructions simulated : ctaid=(11,2,0) tid=(15,3,0)
GPGPU-Sim PTX: 2900000 instructions simulated : ctaid=(5,2,0) tid=(15,3,0)
GPGPU-Sim uArch: cycles simulated: 11500  inst.: 2895680 (ipc=251.8) sim_rate=321742 (inst/sec) elapsed = 0:0:00:09 / Wed May  1 12:44:15 2019
GPGPU-Sim PTX: 3000000 instructions simulated : ctaid=(7,0,0) tid=(15,3,0)
GPGPU-Sim PTX: 3100000 instructions simulated : ctaid=(1,2,0) tid=(15,7,0)
GPGPU-Sim PTX: 3200000 instructions simulated : ctaid=(6,1,0) tid=(15,1,0)
GPGPU-Sim PTX: 3300000 instructions simulated : ctaid=(6,3,0) tid=(15,1,0)
GPGPU-Sim PTX: 3400000 instructions simulated : ctaid=(3,0,0) tid=(15,5,0)
GPGPU-Sim uArch: cycles simulated: 12500  inst.: 3372928 (ipc=269.8) sim_rate=337292 (inst/sec) elapsed = 0:0:00:10 / Wed May  1 12:44:16 2019
GPGPU-Sim PTX: 3500000 instructions simulated : ctaid=(11,0,0) tid=(15,7,0)
GPGPU-Sim PTX: 3600000 instructions simulated : ctaid=(4,2,0) tid=(15,1,0)
GPGPU-Sim PTX: 3700000 instructions simulated : ctaid=(6,1,0) tid=(15,3,0)
GPGPU-Sim PTX: 3800000 instructions simulated : ctaid=(4,1,0) tid=(15,5,0)
GPGPU-Sim uArch: cycles simulated: 14000  inst.: 3753824 (ipc=268.1) sim_rate=341256 (inst/sec) elapsed = 0:0:00:11 / Wed May  1 12:44:17 2019
GPGPU-Sim PTX: 3900000 instructions simulated : ctaid=(5,2,0) tid=(15,1,0)
GPGPU-Sim PTX: 4000000 instructions simulated : ctaid=(5,4,0) tid=(15,1,0)
GPGPU-Sim uArch: cycles simulated: 15000  inst.: 3936000 (ipc=262.4) sim_rate=328000 (inst/sec) elapsed = 0:0:00:12 / Wed May  1 12:44:18 2019
GPGPU-Sim PTX: 4100000 instructions simulated : ctaid=(2,3,0) tid=(15,5,0)
GPGPU-Sim PTX: 4200000 instructions simulated : ctaid=(7,4,0) tid=(15,5,0)
GPGPU-Sim PTX: 4300000 instructions simulated : ctaid=(4,1,0) tid=(15,1,0)
GPGPU-Sim PTX: 4400000 instructions simulated : ctaid=(6,4,0) tid=(15,1,0)
GPGPU-Sim uArch: cycles simulated: 16500  inst.: 4295456 (ipc=260.3) sim_rate=330419 (inst/sec) elapsed = 0:0:00:13 / Wed May  1 12:44:19 2019
GPGPU-Sim PTX: 4500000 instructions simulated : ctaid=(2,2,0) tid=(15,5,0)
GPGPU-Sim PTX: 4600000 instructions simulated : ctaid=(12,0,0) tid=(4,7,0)
GPGPU-Sim uArch: cycles simulated: 17000  inst.: 4535530 (ipc=266.8) sim_rate=323966 (inst/sec) elapsed = 0:0:00:14 / Wed May  1 12:44:20 2019
GPGPU-Sim PTX: 4700000 instructions simulated : ctaid=(2,3,0) tid=(3,4,0)
GPGPU-Sim PTX: 4800000 instructions simulated : ctaid=(0,4,0) tid=(15,4,0)
GPGPU-Sim PTX: 4900000 instructions simulated : ctaid=(6,2,0) tid=(15,0,0)
GPGPU-Sim PTX: 5000000 instructions simulated : ctaid=(12,3,0) tid=(15,0,0)
GPGPU-Sim uArch: cycles simulated: 17500  inst.: 4918352 (ipc=281.0) sim_rate=327890 (inst/sec) elapsed = 0:0:00:15 / Wed May  1 12:44:21 2019
GPGPU-Sim PTX: 5100000 instructions simulated : ctaid=(5,0,0) tid=(15,4,0)
GPGPU-Sim PTX: 5200000 instructions simulated : ctaid=(4,4,0) tid=(15,2,0)
GPGPU-Sim PTX: 5300000 instructions simulated : ctaid=(3,0,0) tid=(15,6,0)
GPGPU-Sim PTX: 5400000 instructions simulated : ctaid=(10,2,0) tid=(5,4,0)
GPGPU-Sim uArch: cycles simulated: 18000  inst.: 5317556 (ipc=295.4) sim_rate=332347 (inst/sec) elapsed = 0:0:00:16 / Wed May  1 12:44:22 2019
GPGPU-Sim PTX: 5500000 instructions simulated : ctaid=(8,2,0) tid=(9,5,0)
GPGPU-Sim PTX: 5600000 instructions simulated : ctaid=(10,3,0) tid=(11,6,0)
GPGPU-Sim PTX: 5700000 instructions simulated : ctaid=(12,2,0) tid=(15,6,0)
GPGPU-Sim PTX: 5800000 instructions simulated : ctaid=(0,4,0) tid=(15,0,0)
GPGPU-Sim PTX: 5900000 instructions simulated : ctaid=(9,1,0) tid=(5,5,0)
GPGPU-Sim PTX: 6000000 instructions simulated : ctaid=(8,0,0) tid=(1,2,0)
GPGPU-Sim PTX: 6100000 instructions simulated : ctaid=(5,0,0) tid=(11,3,0)
GPGPU-Sim PTX: 6200000 instructions simulated : ctaid=(13,2,0) tid=(11,7,0)
GPGPU-Sim uArch: cycles simulated: 19500  inst.: 6073796 (ipc=311.5) sim_rate=357282 (inst/sec) elapsed = 0:0:00:17 / Wed May  1 12:44:23 2019
GPGPU-Sim PTX: 6300000 instructions simulated : ctaid=(13,1,0) tid=(11,3,0)
GPGPU-Sim PTX: 6400000 instructions simulated : ctaid=(12,0,0) tid=(11,7,0)
GPGPU-Sim PTX: 6500000 instructions simulated : ctaid=(12,3,0) tid=(10,5,0)
GPGPU-Sim PTX: 6600000 instructions simulated : ctaid=(9,3,0) tid=(11,5,0)
GPGPU-Sim PTX: 6700000 instructions simulated : ctaid=(7,1,0) tid=(11,3,0)
GPGPU-Sim uArch: cycles simulated: 21500  inst.: 6513700 (ipc=303.0) sim_rate=361872 (inst/sec) elapsed = 0:0:00:18 / Wed May  1 12:44:24 2019
GPGPU-Sim PTX: 6800000 instructions simulated : ctaid=(8,0,0) tid=(11,1,0)
GPGPU-Sim PTX: 6900000 instructions simulated : ctaid=(15,0,0) tid=(11,3,0)
GPGPU-Sim PTX: 7000000 instructions simulated : ctaid=(2,3,0) tid=(11,7,0)
GPGPU-Sim PTX: 7100000 instructions simulated : ctaid=(1,0,0) tid=(11,5,0)
GPGPU-Sim uArch: cycles simulated: 22500  inst.: 6959748 (ipc=309.3) sim_rate=366302 (inst/sec) elapsed = 0:0:00:19 / Wed May  1 12:44:25 2019
GPGPU-Sim PTX: 7200000 instructions simulated : ctaid=(15,0,0) tid=(11,5,0)
GPGPU-Sim PTX: 7300000 instructions simulated : ctaid=(3,2,0) tid=(11,1,0)
GPGPU-Sim PTX: 7400000 instructions simulated : ctaid=(2,1,0) tid=(11,3,0)
GPGPU-Sim uArch: cycles simulated: 23500  inst.: 7250756 (ipc=308.5) sim_rate=362537 (inst/sec) elapsed = 0:0:00:20 / Wed May  1 12:44:26 2019
GPGPU-Sim PTX: 7500000 instructions simulated : ctaid=(0,1,0) tid=(11,3,0)
GPGPU-Sim PTX: 7600000 instructions simulated : ctaid=(5,1,0) tid=(11,3,0)
GPGPU-Sim PTX: 7700000 instructions simulated : ctaid=(8,1,0) tid=(11,5,0)
GPGPU-Sim PTX: 7800000 instructions simulated : ctaid=(10,2,0) tid=(11,1,0)
GPGPU-Sim uArch: cycles simulated: 24500  inst.: 7638788 (ipc=311.8) sim_rate=363751 (inst/sec) elapsed = 0:0:00:21 / Wed May  1 12:44:27 2019
GPGPU-Sim PTX: 7900000 instructions simulated : ctaid=(10,2,0) tid=(11,7,0)
GPGPU-Sim uArch: cycles simulated: 25000  inst.: 7770660 (ipc=310.8) sim_rate=353211 (inst/sec) elapsed = 0:0:00:22 / Wed May  1 12:44:28 2019
GPGPU-Sim PTX: 8000000 instructions simulated : ctaid=(9,4,0) tid=(11,7,0)
GPGPU-Sim PTX: 8100000 instructions simulated : ctaid=(1,1,0) tid=(11,7,0)
GPGPU-Sim uArch: cycles simulated: 25500  inst.: 7959556 (ipc=312.1) sim_rate=346067 (inst/sec) elapsed = 0:0:00:23 / Wed May  1 12:44:29 2019
GPGPU-Sim PTX: 8200000 instructions simulated : ctaid=(8,3,0) tid=(11,1,0)
GPGPU-Sim PTX: 8300000 instructions simulated : ctaid=(10,4,0) tid=(11,5,0)
GPGPU-Sim PTX: 8400000 instructions simulated : ctaid=(5,1,0) tid=(11,5,0)
GPGPU-Sim PTX: 8500000 instructions simulated : ctaid=(9,1,0) tid=(11,7,0)
GPGPU-Sim PTX: 8600000 instructions simulated : ctaid=(12,3,0) tid=(11,7,0)
GPGPU-Sim PTX: 8700000 instructions simulated : ctaid=(5,1,0) tid=(5,5,0)
GPGPU-Sim uArch: cycles simulated: 26500  inst.: 8523108 (ipc=321.6) sim_rate=355129 (inst/sec) elapsed = 0:0:00:24 / Wed May  1 12:44:30 2019
GPGPU-Sim PTX: 8800000 instructions simulated : ctaid=(12,1,0) tid=(1,7,0)
GPGPU-Sim PTX: 8900000 instructions simulated : ctaid=(8,3,0) tid=(11,1,0)
GPGPU-Sim PTX: 9000000 instructions simulated : ctaid=(0,0,0) tid=(5,6,0)
GPGPU-Sim PTX: 9100000 instructions simulated : ctaid=(12,3,0) tid=(10,5,0)
GPGPU-Sim PTX: 9200000 instructions simulated : ctaid=(9,3,0) tid=(3,1,0)
GPGPU-Sim PTX: 9300000 instructions simulated : ctaid=(12,0,0) tid=(13,1,0)
GPGPU-Sim PTX: 9400000 instructions simulated : ctaid=(3,2,0) tid=(0,7,0)
GPGPU-Sim PTX: 9500000 instructions simulated : ctaid=(9,1,0) tid=(2,4,0)
GPGPU-Sim uArch: cycles simulated: 27500  inst.: 9326562 (ipc=339.1) sim_rate=373062 (inst/sec) elapsed = 0:0:00:25 / Wed May  1 12:44:31 2019
GPGPU-Sim PTX: 9600000 instructions simulated : ctaid=(8,3,0) tid=(11,1,0)
GPGPU-Sim PTX: 9700000 instructions simulated : ctaid=(11,3,0) tid=(12,1,0)
GPGPU-Sim PTX: 9800000 instructions simulated : ctaid=(2,0,0) tid=(13,3,0)
GPGPU-Sim PTX: 9900000 instructions simulated : ctaid=(5,4,0) tid=(13,0,0)
GPGPU-Sim PTX: 10000000 instructions simulated : ctaid=(5,4,0) tid=(0,4,0)
GPGPU-Sim PTX: 10100000 instructions simulated : ctaid=(9,4,0) tid=(8,6,0)
GPGPU-Sim uArch: cycles simulated: 28500  inst.: 9837571 (ipc=345.2) sim_rate=378368 (inst/sec) elapsed = 0:0:00:26 / Wed May  1 12:44:32 2019
GPGPU-Sim PTX: 10200000 instructions simulated : ctaid=(15,3,0) tid=(9,1,0)
GPGPU-Sim PTX: 10300000 instructions simulated : ctaid=(9,0,0) tid=(9,5,0)
GPGPU-Sim PTX: 10400000 instructions simulated : ctaid=(7,3,0) tid=(14,6,0)
GPGPU-Sim uArch: Shader 14 finished CTA #0 (29667,0), 4 CTAs running
GPGPU-Sim uArch: core: 14, cta: 0 initialized @(29668,0)
GPGPU-Sim uArch: Shader 6 finished CTA #2 (29673,0), 4 CTAs running
GPGPU-Sim uArch: core:  6, cta: 2 initialized @(29674,0)
GPGPU-Sim uArch: Shader 1 finished CTA #0 (29704,0), 4 CTAs running
GPGPU-Sim uArch: core:  1, cta: 0 initialized @(29705,0)
GPGPU-Sim uArch: Shader 8 finished CTA #2 (29761,0), 4 CTAs running
GPGPU-Sim uArch: core:  8, cta: 2 initialized @(29762,0)
GPGPU-Sim uArch: Shader 0 finished CTA #1 (29782,0), 4 CTAs running
GPGPU-Sim uArch: core:  0, cta: 1 initialized @(29783,0)
GPGPU-Sim uArch: Shader 6 finished CTA #3 (29791,0), 4 CTAs running
GPGPU-Sim uArch: core:  6, cta: 3 initialized @(29792,0)
GPGPU-Sim uArch: Shader 6 finished CTA #4 (29803,0), 4 CTAs running
GPGPU-Sim uArch: Shader 8 finished CTA #3 (29803,0), 4 CTAs running
GPGPU-Sim uArch: core:  8, cta: 3 initialized @(29804,0)
GPGPU-Sim uArch: core:  6, cta: 4 initialized @(29804,0)
GPGPU-Sim uArch: Shader 4 finished CTA #1 (29810,0), 4 CTAs running
GPGPU-Sim uArch: core:  4, cta: 1 initialized @(29811,0)
GPGPU-Sim uArch: Shader 1 finished CTA #1 (29822,0), 4 CTAs running
GPGPU-Sim uArch: core:  1, cta: 1 initialized @(29823,0)
GPGPU-Sim uArch: Shader 1 finished CTA #2 (29830,0), 4 CTAs running
GPGPU-Sim uArch: core:  1, cta: 2 initialized @(29831,0)
GPGPU-Sim uArch: Shader 2 finished CTA #0 (29850,0), 4 CTAs running
GPGPU-Sim uArch: core:  2, cta: 0 initialized @(29851,0)
GPGPU-Sim uArch: Shader 0 finished CTA #0 (29876,0), 4 CTAs running
GPGPU-Sim uArch: core:  0, cta: 0 initialized @(29877,0)
GPGPU-Sim uArch: Shader 1 finished CTA #4 (29880,0), 4 CTAs running
GPGPU-Sim uArch: Shader 4 finished CTA #2 (29880,0), 4 CTAs running
GPGPU-Sim uArch: core:  1, cta: 4 initialized @(29881,0)
GPGPU-Sim uArch: core:  4, cta: 2 initialized @(29881,0)
GPGPU-Sim uArch: Shader 2 finished CTA #1 (29906,0), 4 CTAs running
GPGPU-Sim uArch: core:  2, cta: 1 initialized @(29907,0)
GPGPU-Sim uArch: Shader 3 finished CTA #0 (29910,0), 4 CTAs running
GPGPU-Sim uArch: core:  3, cta: 0 initialized @(29911,0)
GPGPU-Sim uArch: Shader 4 finished CTA #3 (29914,0), 4 CTAs running
GPGPU-Sim uArch: core:  4, cta: 3 initialized @(29915,0)
GPGPU-Sim uArch: Shader 9 finished CTA #3 (29917,0), 4 CTAs running
GPGPU-Sim uArch: core:  9, cta: 3 initialized @(29918,0)
GPGPU-Sim uArch: Shader 2 finished CTA #2 (29926,0), 4 CTAs running
GPGPU-Sim uArch: core:  2, cta: 2 initialized @(29927,0)
GPGPU-Sim uArch: Shader 9 finished CTA #4 (29933,0), 4 CTAs running
GPGPU-Sim uArch: core:  9, cta: 4 initialized @(29934,0)
GPGPU-Sim uArch: Shader 2 finished CTA #3 (29944,0), 4 CTAs running
GPGPU-Sim uArch: Shader 8 finished CTA #4 (29944,0), 4 CTAs running
GPGPU-Sim uArch: core:  2, cta: 3 initialized @(29945,0)
GPGPU-Sim uArch: core:  8, cta: 4 initialized @(29945,0)
GPGPU-Sim uArch: Shader 3 finished CTA #2 (29950,0), 4 CTAs running
GPGPU-Sim uArch: core:  3, cta: 2 initialized @(29951,0)
GPGPU-Sim uArch: Shader 7 finished CTA #3 (29958,0), 4 CTAs running
GPGPU-Sim uArch: core:  7, cta: 3 initialized @(29959,0)
GPGPU-Sim uArch: Shader 5 finished CTA #2 (29971,0), 4 CTAs running
GPGPU-Sim uArch: core:  5, cta: 2 initialized @(29972,0)
GPGPU-Sim uArch: Shader 7 finished CTA #4 (29976,0), 4 CTAs running
GPGPU-Sim uArch: core:  7, cta: 4 initialized @(29977,0)
GPGPU-Sim PTX: 10500000 instructions simulated : ctaid=(7,4,0) tid=(15,5,0)
GPGPU-Sim uArch: Shader 0 finished CTA #2 (29993,0), 4 CTAs running
GPGPU-Sim uArch: core:  0, cta: 2 initialized @(29994,0)
GPGPU-Sim uArch: Shader 3 finished CTA #1 (29996,0), 4 CTAs running
GPGPU-Sim uArch: core:  3, cta: 1 initialized @(29997,0)
GPGPU-Sim uArch: Shader 1 finished CTA #3 (29998,0), 4 CTAs running
GPGPU-Sim uArch: core:  1, cta: 3 initialized @(29999,0)
GPGPU-Sim uArch: cycles simulated: 30000  inst.: 10229276 (ipc=341.0) sim_rate=378862 (inst/sec) elapsed = 0:0:00:27 / Wed May  1 12:44:33 2019
GPGPU-Sim uArch: Shader 3 finished CTA #4 (30011,0), 4 CTAs running
GPGPU-Sim uArch: core:  3, cta: 4 initialized @(30012,0)
GPGPU-Sim uArch: Shader 5 finished CTA #3 (30029,0), 4 CTAs running
GPGPU-Sim uArch: core:  5, cta: 3 initialized @(30030,0)
GPGPU-Sim uArch: Shader 0 finished CTA #3 (30041,0), 4 CTAs running
GPGPU-Sim uArch: core:  0, cta: 3 initialized @(30042,0)
GPGPU-Sim uArch: Shader 2 finished CTA #4 (30047,0), 4 CTAs running
GPGPU-Sim uArch: core:  2, cta: 4 initialized @(30048,0)
GPGPU-Sim uArch: Shader 3 finished CTA #3 (30050,0), 4 CTAs running
GPGPU-Sim uArch: Shader 4 finished CTA #4 (30050,0), 4 CTAs running
GPGPU-Sim uArch: core:  3, cta: 3 initialized @(30051,0)
GPGPU-Sim uArch: core:  4, cta: 4 initialized @(30051,0)
GPGPU-Sim uArch: Shader 0 finished CTA #4 (30052,0), 4 CTAs running
GPGPU-Sim uArch: core:  0, cta: 4 initialized @(30053,0)
GPGPU-Sim uArch: Shader 10 finished CTA #4 (30056,0), 4 CTAs running
GPGPU-Sim uArch: core: 10, cta: 4 initialized @(30057,0)
GPGPU-Sim uArch: Shader 5 finished CTA #4 (30209,0), 4 CTAs running
GPGPU-Sim uArch: core:  5, cta: 4 initialized @(30210,0)
GPGPU-Sim PTX: 10600000 instructions simulated : ctaid=(3,5,0) tid=(10,7,0)
GPGPU-Sim uArch: cycles simulated: 30500  inst.: 10379225 (ipc=340.3) sim_rate=370686 (inst/sec) elapsed = 0:0:00:28 / Wed May  1 12:44:34 2019
GPGPU-Sim PTX: 10700000 instructions simulated : ctaid=(10,0,0) tid=(10,3,0)
GPGPU-Sim uArch: cycles simulated: 31000  inst.: 10506807 (ipc=338.9) sim_rate=362303 (inst/sec) elapsed = 0:0:00:29 / Wed May  1 12:44:35 2019
GPGPU-Sim PTX: 10800000 instructions simulated : ctaid=(9,1,0) tid=(6,7,0)
GPGPU-Sim PTX: 10900000 instructions simulated : ctaid=(10,2,0) tid=(0,5,0)
GPGPU-Sim uArch: cycles simulated: 31500  inst.: 10633273 (ipc=337.6) sim_rate=354442 (inst/sec) elapsed = 0:0:00:30 / Wed May  1 12:44:36 2019
GPGPU-Sim PTX: 11000000 instructions simulated : ctaid=(3,5,0) tid=(10,0,0)
GPGPU-Sim PTX: 11100000 instructions simulated : ctaid=(7,0,0) tid=(6,1,0)
GPGPU-Sim uArch: cycles simulated: 32500  inst.: 10899446 (ipc=335.4) sim_rate=351595 (inst/sec) elapsed = 0:0:00:31 / Wed May  1 12:44:37 2019
GPGPU-Sim PTX: 11200000 instructions simulated : ctaid=(1,7,0) tid=(9,4,0)
GPGPU-Sim PTX: 11300000 instructions simulated : ctaid=(0,6,0) tid=(13,4,0)
GPGPU-Sim PTX: 11400000 instructions simulated : ctaid=(12,4,0) tid=(2,4,0)
GPGPU-Sim PTX: 11500000 instructions simulated : ctaid=(12,4,0) tid=(13,0,0)
GPGPU-Sim uArch: cycles simulated: 34000  inst.: 11286547 (ipc=332.0) sim_rate=352704 (inst/sec) elapsed = 0:0:00:32 / Wed May  1 12:44:38 2019
GPGPU-Sim PTX: 11600000 instructions simulated : ctaid=(11,1,0) tid=(4,5,0)
GPGPU-Sim PTX: 11700000 instructions simulated : ctaid=(11,4,0) tid=(12,7,0)
GPGPU-Sim PTX: 11800000 instructions simulated : ctaid=(14,4,0) tid=(11,0,0)
GPGPU-Sim PTX: 11900000 instructions simulated : ctaid=(4,6,0) tid=(4,4,0)
GPGPU-Sim PTX: 12000000 instructions simulated : ctaid=(5,5,0) tid=(5,4,0)
GPGPU-Sim uArch: cycles simulated: 35000  inst.: 11767273 (ipc=336.2) sim_rate=356584 (inst/sec) elapsed = 0:0:00:33 / Wed May  1 12:44:39 2019
GPGPU-Sim PTX: 12100000 instructions simulated : ctaid=(13,6,0) tid=(8,5,0)
GPGPU-Sim PTX: 12200000 instructions simulated : ctaid=(0,7,0) tid=(4,7,0)
GPGPU-Sim PTX: 12300000 instructions simulated : ctaid=(13,5,0) tid=(15,7,0)
GPGPU-Sim PTX: 12400000 instructions simulated : ctaid=(5,1,0) tid=(0,4,0)
GPGPU-Sim PTX: 12500000 instructions simulated : ctaid=(5,6,0) tid=(7,3,0)
GPGPU-Sim PTX: 12600000 instructions simulated : ctaid=(14,5,0) tid=(7,2,0)
GPGPU-Sim uArch: cycles simulated: 36000  inst.: 12334775 (ipc=342.6) sim_rate=362787 (inst/sec) elapsed = 0:0:00:34 / Wed May  1 12:44:40 2019
GPGPU-Sim PTX: 12700000 instructions simulated : ctaid=(2,6,0) tid=(10,4,0)
GPGPU-Sim PTX: 12800000 instructions simulated : ctaid=(5,0,0) tid=(7,5,0)
GPGPU-Sim PTX: 12900000 instructions simulated : ctaid=(3,6,0) tid=(4,2,0)
GPGPU-Sim uArch: Shader 14 finished CTA #2 (36404,0), 4 CTAs running
GPGPU-Sim uArch: core: 14, cta: 2 initialized @(36405,0)
GPGPU-Sim PTX: 13000000 instructions simulated : ctaid=(3,0,0) tid=(13,2,0)
GPGPU-Sim uArch: Shader 7 finished CTA #2 (36671,0), 4 CTAs running
GPGPU-Sim uArch: core:  7, cta: 2 initialized @(36672,0)
GPGPU-Sim PTX: 13100000 instructions simulated : ctaid=(15,5,0) tid=(10,2,0)
GPGPU-Sim PTX: 13200000 instructions simulated : ctaid=(4,0,0) tid=(3,1,0)
GPGPU-Sim uArch: cycles simulated: 37000  inst.: 12889687 (ipc=348.4) sim_rate=368276 (inst/sec) elapsed = 0:0:00:35 / Wed May  1 12:44:41 2019
GPGPU-Sim PTX: 13300000 instructions simulated : ctaid=(7,6,0) tid=(12,2,0)
GPGPU-Sim PTX: 13400000 instructions simulated : ctaid=(15,6,0) tid=(0,6,0)
GPGPU-Sim PTX: 13500000 instructions simulated : ctaid=(1,7,0) tid=(0,1,0)
GPGPU-Sim PTX: 13600000 instructions simulated : ctaid=(13,6,0) tid=(7,0,0)
GPGPU-Sim PTX: 13700000 instructions simulated : ctaid=(6,6,0) tid=(15,7,0)
GPGPU-Sim uArch: cycles simulated: 38000  inst.: 13385506 (ipc=352.3) sim_rate=361770 (inst/sec) elapsed = 0:0:00:37 / Wed May  1 12:44:43 2019
GPGPU-Sim PTX: 13800000 instructions simulated : ctaid=(0,5,0) tid=(2,6,0)
GPGPU-Sim PTX: 13900000 instructions simulated : ctaid=(0,5,0) tid=(15,6,0)
GPGPU-Sim PTX: 14000000 instructions simulated : ctaid=(6,0,0) tid=(13,4,0)
GPGPU-Sim uArch: cycles simulated: 38500  inst.: 13654041 (ipc=354.7) sim_rate=359316 (inst/sec) elapsed = 0:0:00:38 / Wed May  1 12:44:44 2019
GPGPU-Sim PTX: 14100000 instructions simulated : ctaid=(0,5,0) tid=(11,7,0)
GPGPU-Sim PTX: 14200000 instructions simulated : ctaid=(9,3,0) tid=(3,3,0)
GPGPU-Sim uArch: cycles simulated: 39000  inst.: 13906060 (ipc=356.6) sim_rate=356565 (inst/sec) elapsed = 0:0:00:39 / Wed May  1 12:44:45 2019
GPGPU-Sim PTX: 14300000 instructions simulated : ctaid=(0,5,0) tid=(2,2,0)
GPGPU-Sim PTX: 14400000 instructions simulated : ctaid=(12,4,0) tid=(0,6,0)
GPGPU-Sim PTX: 14500000 instructions simulated : ctaid=(6,5,0) tid=(8,5,0)
GPGPU-Sim PTX: 14600000 instructions simulated : ctaid=(15,4,0) tid=(5,6,0)
GPGPU-Sim PTX: 14700000 instructions simulated : ctaid=(14,5,0) tid=(14,3,0)
GPGPU-Sim PTX: 14800000 instructions simulated : ctaid=(14,5,0) tid=(7,1,0)
GPGPU-Sim uArch: cycles simulated: 40000  inst.: 14473126 (ipc=361.8) sim_rate=361828 (inst/sec) elapsed = 0:0:00:40 / Wed May  1 12:44:46 2019
GPGPU-Sim PTX: 14900000 instructions simulated : ctaid=(14,4,0) tid=(15,5,0)
GPGPU-Sim PTX: 15000000 instructions simulated : ctaid=(14,4,0) tid=(14,2,0)
GPGPU-Sim PTX: 15100000 instructions simulated : ctaid=(12,6,0) tid=(13,3,0)
GPGPU-Sim PTX: 15200000 instructions simulated : ctaid=(7,4,0) tid=(1,6,0)
GPGPU-Sim PTX: 15300000 instructions simulated : ctaid=(9,4,0) tid=(13,1,0)
GPGPU-Sim PTX: 15400000 instructions simulated : ctaid=(15,5,0) tid=(5,2,0)
GPGPU-Sim uArch: cycles simulated: 41000  inst.: 15056705 (ipc=367.2) sim_rate=367236 (inst/sec) elapsed = 0:0:00:41 / Wed May  1 12:44:47 2019
GPGPU-Sim PTX: 15500000 instructions simulated : ctaid=(8,2,0) tid=(0,7,0)
GPGPU-Sim PTX: 15600000 instructions simulated : ctaid=(8,4,0) tid=(11,5,0)
GPGPU-Sim PTX: 15700000 instructions simulated : ctaid=(8,5,0) tid=(2,3,0)
GPGPU-Sim PTX: 15800000 instructions simulated : ctaid=(13,6,0) tid=(7,3,0)
GPGPU-Sim PTX: 15900000 instructions simulated : ctaid=(7,2,0) tid=(3,0,0)
GPGPU-Sim uArch: cycles simulated: 42000  inst.: 15527283 (ipc=369.7) sim_rate=369697 (inst/sec) elapsed = 0:0:00:42 / Wed May  1 12:44:48 2019
GPGPU-Sim PTX: 16000000 instructions simulated : ctaid=(2,7,0) tid=(11,6,0)
GPGPU-Sim PTX: 16100000 instructions simulated : ctaid=(9,6,0) tid=(10,3,0)
GPGPU-Sim uArch: Shader 14 finished CTA #3 (42330,0), 4 CTAs running
GPGPU-Sim uArch: core: 14, cta: 3 initialized @(42331,0)
GPGPU-Sim PTX: 16200000 instructions simulated : ctaid=(10,5,0) tid=(3,4,0)
GPGPU-Sim PTX: 16300000 instructions simulated : ctaid=(14,6,0) tid=(2,5,0)
GPGPU-Sim uArch: Shader 13 finished CTA #2 (42790,0), 4 CTAs running
GPGPU-Sim uArch: core: 13, cta: 2 initialized @(42791,0)
GPGPU-Sim PTX: 16400000 instructions simulated : ctaid=(5,7,0) tid=(0,1,0)
GPGPU-Sim uArch: cycles simulated: 43000  inst.: 15987472 (ipc=371.8) sim_rate=371801 (inst/sec) elapsed = 0:0:00:43 / Wed May  1 12:44:49 2019
GPGPU-Sim PTX: 16500000 instructions simulated : ctaid=(15,6,0) tid=(9,0,0)
GPGPU-Sim PTX: 16600000 instructions simulated : ctaid=(11,6,0) tid=(11,4,0)
GPGPU-Sim PTX: 16700000 instructions simulated : ctaid=(7,5,0) tid=(1,7,0)
GPGPU-Sim PTX: 16800000 instructions simulated : ctaid=(6,0,0) tid=(14,3,0)
GPGPU-Sim uArch: cycles simulated: 44000  inst.: 16448743 (ipc=373.8) sim_rate=373835 (inst/sec) elapsed = 0:0:00:44 / Wed May  1 12:44:50 2019
GPGPU-Sim PTX: 16900000 instructions simulated : ctaid=(3,7,0) tid=(0,3,0)
GPGPU-Sim PTX: 17000000 instructions simulated : ctaid=(6,0,0) tid=(9,6,0)
GPGPU-Sim PTX: 17100000 instructions simulated : ctaid=(10,1,0) tid=(6,5,0)
GPGPU-Sim uArch: cycles simulated: 44500  inst.: 16700051 (ipc=375.3) sim_rate=371112 (inst/sec) elapsed = 0:0:00:45 / Wed May  1 12:44:51 2019
GPGPU-Sim PTX: 17200000 instructions simulated : ctaid=(2,5,0) tid=(10,3,0)
GPGPU-Sim PTX: 17300000 instructions simulated : ctaid=(11,4,0) tid=(5,1,0)
GPGPU-Sim PTX: 17400000 instructions simulated : ctaid=(3,5,0) tid=(3,4,0)
GPGPU-Sim uArch: cycles simulated: 45000  inst.: 16950588 (ipc=376.7) sim_rate=368491 (inst/sec) elapsed = 0:0:00:46 / Wed May  1 12:44:52 2019
GPGPU-Sim uArch: Shader 5 finished CTA #1 (45129,0), 4 CTAs running
GPGPU-Sim uArch: core:  5, cta: 1 initialized @(45130,0)
GPGPU-Sim PTX: 17500000 instructions simulated : ctaid=(12,4,0) tid=(11,0,0)
GPGPU-Sim uArch: Shader 12 finished CTA #3 (45274,0), 4 CTAs running
GPGPU-Sim uArch: core: 12, cta: 3 initialized @(45275,0)
GPGPU-Sim PTX: 17600000 instructions simulated : ctaid=(1,7,0) tid=(4,0,0)
GPGPU-Sim uArch: cycles simulated: 45500  inst.: 17185513 (ipc=377.7) sim_rate=365649 (inst/sec) elapsed = 0:0:00:47 / Wed May  1 12:44:53 2019
GPGPU-Sim PTX: 17700000 instructions simulated : ctaid=(10,6,0) tid=(2,6,0)
GPGPU-Sim PTX: 17800000 instructions simulated : ctaid=(1,6,0) tid=(14,4,0)
GPGPU-Sim uArch: Shader 4 finished CTA #0 (45870,0), 4 CTAs running
GPGPU-Sim uArch: core:  4, cta: 0 initialized @(45871,0)
GPGPU-Sim PTX: 17900000 instructions simulated : ctaid=(0,5,0) tid=(14,3,0)
GPGPU-Sim uArch: cycles simulated: 46000  inst.: 17447579 (ipc=379.3) sim_rate=363491 (inst/sec) elapsed = 0:0:00:48 / Wed May  1 12:44:54 2019
GPGPU-Sim PTX: 18000000 instructions simulated : ctaid=(11,1,0) tid=(6,3,0)
GPGPU-Sim PTX: 18100000 instructions simulated : ctaid=(11,6,0) tid=(12,6,0)
GPGPU-Sim PTX: 18200000 instructions simulated : ctaid=(15,4,0) tid=(6,7,0)
GPGPU-Sim uArch: Shader 9 finished CTA #3 (46681,0), 4 CTAs running
GPGPU-Sim uArch: core:  9, cta: 3 initialized @(46682,0)
GPGPU-Sim PTX: 18300000 instructions simulated : ctaid=(14,4,0) tid=(15,3,0)
GPGPU-Sim uArch: Shader 11 finished CTA #4 (46759,0), 4 CTAs running
GPGPU-Sim uArch: core: 11, cta: 4 initialized @(46760,0)
GPGPU-Sim uArch: Shader 7 finished CTA #4 (46840,0), 4 CTAs running
GPGPU-Sim uArch: core:  7, cta: 4 initialized @(46841,0)
GPGPU-Sim PTX: 18400000 instructions simulated : ctaid=(2,7,0) tid=(6,4,0)
GPGPU-Sim uArch: Shader 7 finished CTA #3 (46924,0), 4 CTAs running
GPGPU-Sim uArch: core:  7, cta: 3 initialized @(46925,0)
GPGPU-Sim uArch: cycles simulated: 47000  inst.: 17948215 (ipc=381.9) sim_rate=366290 (inst/sec) elapsed = 0:0:00:49 / Wed May  1 12:44:55 2019
GPGPU-Sim PTX: 18500000 instructions simulated : ctaid=(11,7,0) tid=(13,2,0)
GPGPU-Sim uArch: Shader 14 finished CTA #0 (47138,0), 4 CTAs running
GPGPU-Sim uArch: core: 14, cta: 0 initialized @(47139,0)
GPGPU-Sim uArch: Shader 9 finished CTA #4 (47142,0), 4 CTAs running
GPGPU-Sim uArch: core:  9, cta: 4 initialized @(47143,0)
GPGPU-Sim uArch: Shader 13 finished CTA #3 (47180,0), 4 CTAs running
GPGPU-Sim uArch: core: 13, cta: 3 initialized @(47181,0)
[...]
max_icnt2mem_latency = 1092 
max_icnt2sh_latency = 151663 
mrq_lat_table:29108 	3084 	3109 	4586 	13469 	14732 	13736 	8042 	1757 	148 	4 	0 	0 	0 	0 	0 	0 	0 	0 	0 	0 	0 	0 	0 	0 	0 	0 	0 	0 	0 	0 	0 	
dq_lat_table:0 	0 	0 	0 	0 	0 	0 	0 	0 	0 	0 	0 	0 	0 	0 	0 	0 	0 	0 	0 	0 	0 	0 	0 	0 	0 	0 	0 	0 	0 	0 	0 	
mf_lat_table:0 	0 	0 	0 	0 	0 	0 	21843 	26286 	14290 	1556 	0 	0 	0 	0 	0 	0 	0 	0 	0 	0 	0 	0 	0 	0 	0 	0 	0 	0 	0 	0 	0 	
icnt2mem_lat_table:0 	0 	0 	20428 	12309 	12603 	25724 	5086 	4822 	826 	4 	0 	0 	0 	0 	0 	0 	0 	0 	0 	0 	0 	0 	0 	
icnt2sh_lat_table:0 	0 	0 	5709 	4058 	1349 	128 	0 	0 	186 	498 	1378 	3107 	2631 	4411 	9531 	22127 	8862 	0 	0 	0 	0 	0 	0 	
mf_lat_pw_table:0 	0 	0 	0 	0 	0 	0 	113 	125 	40 	3 	0 	0 	0 	0 	0 	0 	0 	0 	0 	0 	0 	0 	0 	0 	0 	0 	0 	0 	0 	0 	0 	
maximum concurrent accesses to same row:
dram[0]:        62        64        62        58        52        54        38        40        50        38        36        38        22        18        20        18 
dram[1]:        58        62        64        58        52        56        44        42        40        40        36        32        23        18        20        38 
dram[2]:        64        62        62        69        58        36        38        42        52        44        38        42        18        24        45        22 
dram[3]:        60        60        61        59        56        34        40        40        46        46        38        36        22        22        30        20 
dram[4]:        62        64        62        60        60        52        38        46        54        46        48        48        26        20        23        21 
dram[5]:        60        60        62        62        44        38        34        32        38        38        38        36        20        18        20        21 
maximum service time to same row:
dram[0]:     14633     16809     18113     17697     14594     15813     18690     14212     20044     19591     19665     19693     21258     21039     21144     21025 
dram[1]:     12379     14135     17855     17673     15765     14804     16618     14357     19154     19351     19296     19324     20818     20622     20670     20817 
dram[2]:     11494     12412     17612     18004     15953     15378     14498     18366     19352     20003     20200     19414     19582     19902     20495     21103 
dram[3]:     10814      9984     17685     17433     15463     15450     13657     13586     19114     19466     19537     19170     19229     19442     19933     20557 
dram[4]:     10087     14758     17844     18141     14741     13826     19614     19037     19548     19925     19850     19614     19714     20128     21114     21330 
dram[5]:      9445     14988     17719     18295     15876     15890     14117     13967     19343     19900     19615     19647     21561     19595     20657     20893 
average row accesses per activate:
dram[0]:  4.378788  4.331492  5.481482  4.680473  4.791907  3.772093  3.957983  3.684783  3.921348  3.667883  4.029046  3.772894  3.790076  3.980080  4.391061  4.295082 
dram[1]:  4.072727  4.655172  4.626374  4.583815  4.088785  4.431579  3.489655  4.000000  3.584775  3.793358  3.419355  3.312500  3.751908  4.081633  4.189474  4.287293 
dram[2]:  5.322785  5.047059  6.021276  5.226994  4.485294  4.589744  3.926056  4.475206  4.198473  3.879859  3.619808  3.822148  3.977860  4.053232  4.944445  4.484210 
dram[3]:  4.981928  4.648649  5.011976  5.297297  4.538071  4.119816  3.786765  3.859712  3.857143  3.757786  3.724490  3.618590  3.860294  3.862816  4.887640  4.193069 
dram[4]:  4.089202  5.358108  5.202532  5.418750  4.260000  3.826271  4.080153  3.859589  4.193799  3.956679  3.962687  3.786164  4.078067  4.181467  4.429319  4.368932 
dram[5]:  4.560606  5.789855  5.408805  5.017752  3.906667  4.207547  3.555195  3.878676  4.271318  3.803571  3.591772  3.615625  4.224335  4.123552  4.512953  4.542289 
average row locality = 91775/22098 = 4.153091
number of total memory accesses made:
dram[0]:         0         0         0         0         0         0         0         0         0         0         0         0         0         0         0         0 
dram[1]:         0         0         0         0         0         0         0         0         0         0         0         0         0         0         0         0 
dram[2]:         0         0         0         0         0         0         0         0         0         0         0         0         0         0         0         0 
dram[3]:         0         0         0         0         0         0         0         0         0         0         0         0         0         0         0         0 
dram[4]:         0         0         0         0         0         0         0         0         0         0         0         0         0         0         0         0 
dram[5]:         0         0         0         0         0         0         0         0         0         0         0         0         0         0         0         0 
total accesses: 0
min_bank_accesses = 0!
min_chip_accesses = 0!
number of total read accesses:
dram[0]:       406       367       345       369       386       382       424       469       480       459       439       476       450       457       368       365 
dram[1]:       431       378       390       371       408       397       459       458       478       469       490       465       451       461       376       369 
dram[2]:       395       407       397       387       431       413       510       485       503       503       517       515       489       481       407       392 
dram[3]:       388       397       381       357       417       414       465       481       488       499       498       516       478       483       402       395 
dram[4]:       409       374       382       409       406       425       485       521       498       506       481       561       503       497       395       427 
dram[5]:       429       376       393       399       417       416       501       482       505       492       526       535       515       493       405       433 
total reads: 42380
bank skew: 561/345 = 1.63
chip skew: 7317/6642 = 1.10
number of total write accesses:
dram[0]:       461       417       395       422       443       429       518       548       567       546       532       554       543       542       418       421 
dram[1]:       465       432       452       422       467       445       553       546       558       559       570       542       532       539       420       407 
dram[2]:       446       451       452       465       484       482       605       598       597       595       616       624       589       585       483       460 
dram[3]:       439       463       456       427       477       480       565       592       592       587       597       613       572       587       468       452 
dram[4]:       462       419       440       458       446       478       584       606       584       590       581       643       594       586       451       473 
dram[5]:       474       423       467       449       462       476       594       573       597       573       609       622       596       575       466       480 
total reads: 49395
bank skew: 643/395 = 1.63
chip skew: 8532/7756 = 1.10
average mf latency per bank:
dram[0]:        273       251       304       280       313       291       317       276       280       272       276       266       280       283       297       297
dram[1]:        259       238       255       257       263       254       267       256       266       263       242       249       250       249       275       273
dram[2]:        267       258       289       291       295       285       279       283       286       262       258       263       275       276       319       291
dram[3]:        240       253       268       290       261       268       267       263       276       249       249       250       263       256       304       277
dram[4]:        265       269       313       303       306       317       307       287       306       293       287       268       279       291       327       323
dram[5]:        241       244       275       265       272       260       263       262       257       249       236       235       252       251       279       272
maximum mf latency per bank:
dram[0]:       1450      1371      1674      1515      1999      1566      1373      1436      1356      1179      1289      1102      1497      1412      1333      1127
dram[1]:       1133      1059      1351      1324      1335      1415      1131      1071      1434      1505      1107      1028      1045      1126      1177       955
dram[2]:       1428      1333      1762      1750      1536      1530      1661      1442      1351      1508      1247      1401      1445      1273      1189      1332
dram[3]:       1208      1456      1535      1699      1341      1483      1252      1450      1505      1089      1036      1198      1149      1183      1116      1123
dram[4]:       1393      1514      1843      1844      1677      1750      1533      1589      1552      1374      1286      1359      1410      1402      1490      1311
dram[5]:       1365      1329      1802      1570      1660      1549      1784      1704      1337      1271      1235      1223      1320      1238      1312      1264

Number of Memory Banks Accessed per Memory Operation per Warp (from 0):
0	0	0	0	0	0	0	0	0	0	0	0	0	0	0	0	0	0	0	0	0	0	0	0	0	0	0	0	0	0	0	0	0	0	0	0	0	0	0	0	0	0	0	0	0	0	0	0	0	0	0	0	0	0	0	0	0	0	0	0	0	0	0	0	0	0	0	0	0	0	0	0	0	0	0	0	0	0	0	0	0	0	0	0	0	0	0	0	0	0	0	0	0	0	0	0	
Average # of Memory Banks Accessed per Memory Operation per Warp=-nan

position of mrq chosen
0	0	0	0	0	0	0	0	0	0	0	0	0	0	0	0	

average position of mrq chosen = -nan
Memory Partition 0: 
Cache L2_bank_000:
MSHR contents

Cache L2_bank_001:
MSHR contents

In Dram Latency Queue (total = 0): 
DRAM[0]: 16 bks, busW=4 BL=8 CL=12, tRRD=2 tCCD=6, tRCD=12 tRAS=28 tRP=12 tRC=40
n_cmd=200196 n_nop=164971 n_act=3515 n_pre=3499 n_req=14398 n_rd=13284 n_write=14927 bw_util=0.2818
n_activity=104918 dram_eff=0.5378
bk0: 812a 170969i bk1: 734a 173160i bk2: 690a 172518i bk3: 738a 170052i bk4: 772a 166032i bk5: 764a 167094i bk6: 848a 161155i bk7: 938a 158369i bk8: 960a 160089i bk9: 918a 159484i bk10: 878a 161448i bk11: 952a 158717i bk12: 900a 158535i bk13: 914a 157467i bk14: 736a 166291i bk15: 730a 165733i 
dram_util_bins: 0 0 0 0 0 0 0 0 0 0
dram_eff_bins: 0 0 0 0 0 0 0 0 0 0
mrqq: max=16 avg=4.53518
Memory Partition 1: 
Cache L2_bank_002:
MSHR contents

Cache L2_bank_003:
MSHR contents

In Dram Latency Queue (total = 0): 
DRAM[1]: 16 bks, busW=4 BL=8 CL=12, tRRD=2 tCCD=6, tRCD=12 tRAS=28 tRP=12 tRC=40
n_cmd=200196 n_nop=163749 n_act=3746 n_pre=3730 n_req=14760 n_rd=13702 n_write=15269 bw_util=0.2894
n_activity=107503 dram_eff=0.539
bk0: 862a 168101i bk1: 756a 172285i bk2: 780a 168544i bk3: 742a 170109i bk4: 816a 163611i bk5: 794a 166896i bk6: 918a 159323i bk7: 916a 159945i bk8: 956a 159047i bk9: 938a 159784i bk10: 980a 157846i bk11: 930a 158245i bk12: 902a 158976i bk13: 922a 158624i bk14: 752a 166799i bk15: 738a 166498i 
dram_util_bins: 0 0 0 0 0 0 0 0 0 0
dram_eff_bins: 0 0 0 0 0 0 0 0 0 0
mrqq: max=16 avg=4.45477
Memory Partition 2: 
Cache L2_bank_004:
MSHR contents

Cache L2_bank_005:
MSHR contents

In Dram Latency Queue (total = 0): 
DRAM[2]: 16 bks, busW=4 BL=8 CL=12, tRRD=2 tCCD=6, tRCD=12 tRAS=28 tRP=12 tRC=40
n_cmd=200196 n_nop=161988 n_act=3617 n_pre=3601 n_req=15764 n_rd=14464 n_write=16526 bw_util=0.3096
n_activity=113185 dram_eff=0.5476
bk0: 790a 172350i bk1: 814a 171832i bk2: 794a 169785i bk3: 774a 169295i bk4: 862a 164489i bk5: 826a 165746i bk6: 1020a 156118i bk7: 970a 155974i bk8: 1006a 157102i bk9: 1006a 159352i bk10: 1034a 155970i bk11: 1030a 156150i bk12: 978a 156537i bk13: 962a 155681i bk14: 814a 161933i bk15: 784a 163843i 
dram_util_bins: 0 0 0 0 0 0 0 0 0 0
dram_eff_bins: 0 0 0 0 0 0 0 0 0 0
mrqq: max=16 avg=4.97108
Memory Partition 3: 
Cache L2_bank_006:
MSHR contents

Cache L2_bank_007:
MSHR contents

In Dram Latency Queue (total = 0): 
DRAM[3]: 16 bks, busW=4 BL=8 CL=12, tRRD=2 tCCD=6, tRCD=12 tRAS=28 tRP=12 tRC=40
n_cmd=200196 n_nop=162405 n_act=3734 n_pre=3718 n_req=15426 n_rd=14118 n_write=16221 bw_util=0.3031
n_activity=113395 dram_eff=0.5351
bk0: 776a 173757i bk1: 794a 171634i bk2: 762a 170802i bk3: 714a 172404i bk4: 834a 166617i bk5: 828a 166056i bk6: 930a 159618i bk7: 962a 158415i bk8: 976a 157314i bk9: 998a 158809i bk10: 996a 156555i bk11: 1032a 153930i bk12: 956a 156308i bk13: 966a 155893i bk14: 804a 161838i bk15: 790a 163443i 
dram_util_bins: 0 0 0 0 0 0 0 0 0 0
dram_eff_bins: 0 0 0 0 0 0 0 0 0 0
mrqq: max=16 avg=4.64168
Memory Partition 4: 
Cache L2_bank_008:
MSHR contents

Cache L2_bank_009:
MSHR contents

In Dram Latency Queue (total = 0): 
DRAM[4]: 16 bks, busW=4 BL=8 CL=12, tRRD=2 tCCD=6, tRCD=12 tRAS=28 tRP=12 tRC=40
n_cmd=200196 n_nop=162009 n_act=3715 n_pre=3699 n_req=15674 n_rd=14558 n_write=16215 bw_util=0.3074
n_activity=112916 dram_eff=0.5451
bk0: 818a 171129i bk1: 748a 173506i bk2: 764a 170014i bk3: 818a 169204i bk4: 812a 167751i bk5: 850a 163279i bk6: 970a 156704i bk7: 1042a 154436i bk8: 996a 156858i bk9: 1012a 156507i bk10: 962a 157696i bk11: 1122a 152216i bk12: 1006a 155840i bk13: 994a 154222i bk14: 790a 161503i bk15: 854a 162041i 
dram_util_bins: 0 0 0 0 0 0 0 0 0 0
dram_eff_bins: 0 0 0 0 0 0 0 0 0 0
mrqq: max=16 avg=5.11009
Memory Partition 5: 
Cache L2_bank_010:
MSHR contents

Cache L2_bank_011:
MSHR contents

In Dram Latency Queue (total = 0): 
DRAM[5]: 16 bks, busW=4 BL=8 CL=12, tRRD=2 tCCD=6, tRCD=12 tRAS=28 tRP=12 tRC=40
n_cmd=200196 n_nop=161682 n_act=3771 n_pre=3755 n_req=15753 n_rd=14634 n_write=16354 bw_util=0.3096
n_activity=115344 dram_eff=0.5373
bk0: 858a 169112i bk1: 752a 172773i bk2: 786a 168044i bk3: 798a 169263i bk4: 834a 165852i bk5: 832a 165355i bk6: 1002a 155910i bk7: 964a 155921i bk8: 1010a 157830i bk9: 984a 157393i bk10: 1052a 156392i bk11: 1070a 153370i bk12: 1030a 154899i bk13: 986a 155549i bk14: 810a 162052i bk15: 866a 160259i 
dram_util_bins: 0 0 0 0 0 0 0 0 0 0
dram_eff_bins: 0 0 0 0 0 0 0 0 0 0
mrqq: max=16 avg=4.73255

========= L2 cache stats =========
L2_cache_bank[0]: Access = 6617, Miss = 3298, Miss_rate = 0.498, Pending_hits = 132, Reservation_fails = 1258
L2_cache_bank[1]: Access = 6680, Miss = 3344, Miss_rate = 0.501, Pending_hits = 128, Reservation_fails = 810
L2_cache_bank[2]: Access = 6699, Miss = 3483, Miss_rate = 0.520, Pending_hits = 135, Reservation_fails = 1035
L2_cache_bank[3]: Access = 6647, Miss = 3368, Miss_rate = 0.507, Pending_hits = 104, Reservation_fails = 560
L2_cache_bank[4]: Access = 6788, Miss = 3649, Miss_rate = 0.538, Pending_hits = 134, Reservation_fails = 1400
L2_cache_bank[5]: Access = 7060, Miss = 3583, Miss_rate = 0.508, Pending_hits = 147, Reservation_fails = 512
L2_cache_bank[6]: Access = 6841, Miss = 3517, Miss_rate = 0.514, Pending_hits = 126, Reservation_fails = 790
L2_cache_bank[7]: Access = 6996, Miss = 3542, Miss_rate = 0.506, Pending_hits = 122, Reservation_fails = 976
L2_cache_bank[8]: Access = 6963, Miss = 3559, Miss_rate = 0.511, Pending_hits = 140, Reservation_fails = 954
L2_cache_bank[9]: Access = 6753, Miss = 3720, Miss_rate = 0.551, Pending_hits = 114, Reservation_fails = 690
L2_cache_bank[10]: Access = 7006, Miss = 3691, Miss_rate = 0.527, Pending_hits = 127, Reservation_fails = 930
L2_cache_bank[11]: Access = 6752, Miss = 3626, Miss_rate = 0.537, Pending_hits = 105, Reservation_fails = 432
L2_total_cache_accesses = 81802
L2_total_cache_misses = 42380
L2_total_cache_miss_rate = 0.5181
L2_total_cache_pending_hits = 1514
L2_total_cache_reservation_fails = 10347
L2_total_cache_breakdown:
	L2_cache_stats_breakdown[GLOBAL_ACC_R][HIT] = 2379
	L2_cache_stats_breakdown[GLOBAL_ACC_R][HIT_RESERVED] = 77
	L2_cache_stats_breakdown[GLOBAL_ACC_R][MISS] = 1445
	L2_cache_stats_breakdown[GLOBAL_ACC_R][RESERVATION_FAIL] = 329
	L2_cache_stats_breakdown[LOCAL_ACC_R][HIT] = 3963
	L2_cache_stats_breakdown[LOCAL_ACC_R][HIT_RESERVED] = 348
	L2_cache_stats_breakdown[LOCAL_ACC_R][MISS] = 3002
	L2_cache_stats_breakdown[LOCAL_ACC_R][RESERVATION_FAIL] = 4
	L2_cache_stats_breakdown[CONST_ACC_R][HIT] = 22
	L2_cache_stats_breakdown[CONST_ACC_R][HIT_RESERVED] = 6
	L2_cache_stats_breakdown[CONST_ACC_R][MISS] = 2
	L2_cache_stats_breakdown[CONST_ACC_R][RESERVATION_FAIL] = 574
	L2_cache_stats_breakdown[GLOBAL_ACC_W][HIT] = 5342
	L2_cache_stats_breakdown[GLOBAL_ACC_W][HIT_RESERVED] = 785
	L2_cache_stats_breakdown[GLOBAL_ACC_W][MISS] = 2065
	L2_cache_stats_breakdown[GLOBAL_ACC_W][RESERVATION_FAIL] = 54
	L2_cache_stats_breakdown[LOCAL_ACC_W][HIT] = 12711
	L2_cache_stats_breakdown[LOCAL_ACC_W][HIT_RESERVED] = 69
	L2_cache_stats_breakdown[LOCAL_ACC_W][MISS] = 31759
	L2_cache_stats_breakdown[LOCAL_ACC_W][RESERVATION_FAIL] = 790
	L2_cache_stats_breakdown[L1_WRBK_ACC][HIT] = 970
	L2_cache_stats_breakdown[L1_WRBK_ACC][MISS] = 3985
	L2_cache_stats_breakdown[L1_WRBK_ACC][RESERVATION_FAIL] = 27
	L2_cache_stats_breakdown[INST_ACC_R][HIT] = 12521
	L2_cache_stats_breakdown[INST_ACC_R][HIT_RESERVED] = 229
	L2_cache_stats_breakdown[INST_ACC_R][MISS] = 122
	L2_cache_stats_breakdown[INST_ACC_R][RESERVATION_FAIL] = 8569
L2_cache_data_port_util = 0.079
L2_cache_fill_port_util = 0.093

icnt_total_pkts_mem_to_simt=173251
icnt_total_pkts_simt_to_mem=293015
LD_mem_lat_dist  0 0 0 0 0 0 0 0 0 0 0 0 0 0 0 0 0 0 0 0 0 0 0 0 0 0 0
ST_mem_lat_dist  0 0 0 0 0 0 0 0 0 0 0 0 0 0 0 0 0 0 0 0 0 0 0 0 0 0 0
----------------------------Interconnect-DETAILS--------------------------------
Class 0:
Packet latency average = 19.9232
	minimum = 6
	maximum = 703
Network latency average = 15.4104
	minimum = 6
	maximum = 678
Slowest packet = 707
Flit latency average = 14.6826
	minimum = 6
	maximum = 674
Slowest flit = 10925
Fragmentation average = 0.265504
	minimum = 0
	maximum = 556
Injected packet rate average = 0.0387428
	minimum = 0.0334687 (at node 6)
	maximum = 0.0436623 (at node 20)
Accepted packet rate average = 0.0387428
	minimum = 0.0310489 (at node 6)
	maximum = 0.0465503 (at node 20)
Injected flit rate average = 0.113864
	minimum = 0.0909576 (at node 19)
	maximum = 0.136921 (at node 10)
Accepted flit rate average= 0.113864
	minimum = 0.0663836 (at node 3)
	maximum = 0.167884 (at node 20)
Injected packet length average = 2.93898
Accepted packet length average = 2.93898
Total in-flight flits = 0 (0 measured)
====== Overall Traffic Statistics ======
====== Traffic class 0 ======
Packet latency average = 19.9232 (1 samples)
	minimum = 6 (1 samples)
	maximum = 703 (1 samples)
Network latency average = 15.4104 (1 samples)
	minimum = 6 (1 samples)
	maximum = 678 (1 samples)
Flit latency average = 14.6826 (1 samples)
	minimum = 6 (1 samples)
	maximum = 674 (1 samples)
Fragmentation average = 0.265504 (1 samples)
	minimum = 0 (1 samples)
	maximum = 556 (1 samples)
Injected packet rate average = 0.0387428 (1 samples)
	minimum = 0.0334687 (1 samples)
	maximum = 0.0436623 (1 samples)
Accepted packet rate average = 0.0387428 (1 samples)
	minimum = 0.0310489 (1 samples)
	maximum = 0.0465503 (1 samples)
Injected flit rate average = 0.113864 (1 samples)
	minimum = 0.0909576 (1 samples)
	maximum = 0.136921 (1 samples)
Accepted flit rate average = 0.113864 (1 samples)
	minimum = 0.0663836 (1 samples)
	maximum = 0.167884 (1 samples)
Injected packet size average = 2.93898 (1 samples)
Accepted packet size average = 2.93898 (1 samples)
Hops average = 1 (1 samples)
----------------------------END-of-Interconnect-DETAILS-------------------------
GPGPU-Sim API: Stream Manager State


gpgpu_simulation_time = 0 days, 0 hrs, 3 min, 3 sec (183 sec)
gpgpu_simulation_rate = 342527 (inst/sec)
gpgpu_simulation_rate = 828 (cycle/sec)
GPGPU-Sim: detected inactive GPU simulation thread

checksum=75ef40cb5b8e
Kernel Time: 182457.296875 
