

        *** GPGPU-Sim Simulator Version 3.2.2  [build 0] ***


GPGPU-Sim PTX: simulation mode 0 (can change with PTX_SIM_MODE_FUNC environment variable:
               1=functional simulation only, 0=detailed performance simulator)
GPGPU-Sim: Configuration options:

-network_mode                           1 # Interconnection network mode
-inter_config_file   config_fermi_islip.icnt # Interconnection network config file
-gpgpu_ptx_use_cuobjdump                    1 # Use cuobjdump to extract ptx and sass from binaries
-gpgpu_experimental_lib_support                    0 # Try to extract code from cuda libraries [Broken because of unknown cudaGetExportTable]
-gpgpu_ptx_convert_to_ptxplus                    0 # Convert SASS (native ISA) to ptxplus and run ptxplus
-gpgpu_ptx_force_max_capability                   20 # Force maximum compute capability
-gpgpu_ptx_inst_debug_to_file                    0 # Dump executed instructions' debug information to file
-gpgpu_ptx_inst_debug_file       inst_debug.txt # Executed instructions' debug output file
-gpgpu_ptx_inst_debug_thread_uid                    1 # Thread UID for executed instructions' debug output
-gpgpu_simd_model                       1 # 1 = post-dominator
-gpgpu_shader_core_pipeline              1536:32 # shader core pipeline config, i.e., {<nthread>:<warpsize>}
-gpgpu_tex_cache:l1  4:128:24,L:R:m:N:L,F:128:4,128:2 # per-shader L1 texture cache  (READ-ONLY) config  {<nsets>:<bsize>:<assoc>,<rep>:<wr>:<alloc>:<wr_alloc>,<mshr>:<N>:<merge>,<mq>:<rf>}
-gpgpu_const_cache:l1 64:64:2,L:R:f:N:L,A:2:32,4 # per-shader L1 constant memory cache  (READ-ONLY) config  {<nsets>:<bsize>:<assoc>,<rep>:<wr>:<alloc>:<wr_alloc>,<mshr>:<N>:<merge>,<mq>} 
-gpgpu_cache:il1     4:128:4,L:R:f:N:L,A:2:32,4 # shader L1 instruction cache config  {<nsets>:<bsize>:<assoc>,<rep>:<wr>:<alloc>:<wr_alloc>,<mshr>:<N>:<merge>,<mq>} 
-gpgpu_cache:dl1     64:128:1,L:L:m:N:H,A:32:8,8 # per-shader L1 data cache config  {<nsets>:<bsize>:<assoc>,<rep>:<wr>:<alloc>:<wr_alloc>,<mshr>:<N>:<merge>,<mq> | none}
-gpgpu_cache:dl1PrefL1                 none # per-shader L1 data cache config  {<nsets>:<bsize>:<assoc>,<rep>:<wr>:<alloc>:<wr_alloc>,<mshr>:<N>:<merge>,<mq> | none}
-gpgpu_cache:dl1PreShared                 none # per-shader L1 data cache config  {<nsets>:<bsize>:<assoc>,<rep>:<wr>:<alloc>:<wr_alloc>,<mshr>:<N>:<merge>,<mq> | none}
-gmem_skip_L1D                          0 # global memory access skip L1D cache (implements -Xptxas -dlcm=cg, default=no skip)
-gpgpu_perfect_mem                      0 # enable perfect memory mode (no cache miss)
-n_regfile_gating_group                    4 # group of lanes that should be read/written together)
-gpgpu_clock_gated_reg_file                    0 # enable clock gated reg file for power calculations
-gpgpu_clock_gated_lanes                    0 # enable clock gated lanes for power calculations
-gpgpu_shader_registers                32768 # Number of registers per shader core. Limits number of concurrent CTAs. (default 8192)
-gpgpu_shader_cta                       8 # Maximum number of concurrent CTAs in shader (default 8)
-gpgpu_num_cta_barriers                   16 # Maximum number of named barriers per CTA (default 16)
-gpgpu_n_clusters                      15 # number of processing clusters
-gpgpu_n_cores_per_cluster                    1 # number of simd cores per cluster
-gpgpu_n_cluster_ejection_buffer_size                    8 # number of packets in ejection buffer
-gpgpu_n_ldst_response_buffer_size                    2 # number of response packets in ld/st unit ejection buffer
-gpgpu_shmem_size                   16384 # Size of shared memory per shader core (default 16kB)
-gpgpu_shmem_size                   49152 # Size of shared memory per shader core (default 16kB)
-gpgpu_shmem_size_PrefL1                16384 # Size of shared memory per shader core (default 16kB)
-gpgpu_shmem_size_PrefShared                16384 # Size of shared memory per shader core (default 16kB)
-gpgpu_shmem_num_banks                   32 # Number of banks in the shared memory in each shader core (default 16)
-gpgpu_shmem_limited_broadcast                    0 # Limit shared memory to do one broadcast per cycle (default on)
-gpgpu_shmem_warp_parts                    1 # Number of portions a warp is divided into for shared memory bank conflict check 
-gpgpu_warpdistro_shader                   -1 # Specify which shader core to collect the warp size distribution from
-gpgpu_warp_issue_shader                    0 # Specify which shader core to collect the warp issue distribution from
-gpgpu_local_mem_map                    1 # Mapping from local memory space address to simulated GPU physical address space (default = enabled)
-gpgpu_num_reg_banks                   16 # Number of register banks (default = 8)
-gpgpu_reg_bank_use_warp_id                    0 # Use warp ID in mapping registers to banks (default = off)
-gpgpu_operand_collector_num_units_sp                    6 # number of collector units (default = 4)
-gpgpu_operand_collector_num_units_sfu                    8 # number of collector units (default = 4)
-gpgpu_operand_collector_num_units_mem                    2 # number of collector units (default = 2)
-gpgpu_operand_collector_num_units_gen                    0 # number of collector units (default = 0)
-gpgpu_operand_collector_num_in_ports_sp                    2 # number of collector unit in ports (default = 1)
-gpgpu_operand_collector_num_in_ports_sfu                    1 # number of collector unit in ports (default = 1)
-gpgpu_operand_collector_num_in_ports_mem                    1 # number of collector unit in ports (default = 1)
-gpgpu_operand_collector_num_in_ports_gen                    0 # number of collector unit in ports (default = 0)
-gpgpu_operand_collector_num_out_ports_sp                    2 # number of collector unit in ports (default = 1)
-gpgpu_operand_collector_num_out_ports_sfu                    1 # number of collector unit in ports (default = 1)
-gpgpu_operand_collector_num_out_ports_mem                    1 # number of collector unit in ports (default = 1)
-gpgpu_operand_collector_num_out_ports_gen                    0 # number of collector unit in ports (default = 0)
-gpgpu_coalesce_arch                   13 # Coalescing arch (default = 13, anything else is off for now)
-gpgpu_num_sched_per_core                    2 # Number of warp schedulers per core
-gpgpu_max_insn_issue_per_warp                    1 # Max number of instructions that can be issued per warp in one cycle by scheduler
-gpgpu_simt_core_sim_order                    1 # Select the simulation order of cores in a cluster (0=Fix, 1=Round-Robin)
-gpgpu_pipeline_widths        2,1,1,2,1,1,2 # Pipeline widths ID_OC_SP,ID_OC_SFU,ID_OC_MEM,OC_EX_SP,OC_EX_SFU,OC_EX_MEM,EX_WB
-gpgpu_num_sp_units                     2 # Number of SP units (default=1)
-gpgpu_num_sfu_units                    1 # Number of SF units (default=1)
-gpgpu_num_mem_units                    1 # Number if ldst units (default=1) WARNING: not hooked up to anything
-gpgpu_scheduler                      gto # Scheduler configuration: < lrr | gto | two_level_active > If two_level_active:<num_active_warps>:<inner_prioritization>:<outer_prioritization>For complete list of prioritization values see shader.h enum scheduler_prioritization_typeDefault: gto
-gpgpu_dram_scheduler                    1 # 0 = fifo, 1 = FR-FCFS (defaul)
-gpgpu_dram_partition_queues              8:8:8:8 # i2$:$2d:d2$:$2i
-l2_ideal                               0 # Use a ideal L2 cache that always hit
-gpgpu_cache:dl2     64:128:8,L:B:m:W:L,A:32:4,4:0,32 # unified banked L2 data cache config  {<nsets>:<bsize>:<assoc>,<rep>:<wr>:<alloc>:<wr_alloc>,<mshr>:<N>:<merge>,<mq>}
-gpgpu_cache:dl2_texture_only                    0 # L2 cache used for texture only
-gpgpu_n_mem                            6 # number of memory modules (e.g. memory controllers) in gpu
-gpgpu_n_sub_partition_per_mchannel                    2 # number of memory subpartition in each memory module
-gpgpu_n_mem_per_ctrlr                    2 # number of memory chips per memory controller
-gpgpu_memlatency_stat                   14 # track and display latency statistics 0x2 enables MC, 0x4 enables queue logs
-gpgpu_frfcfs_dram_sched_queue_size                   16 # 0 = unlimited (default); # entries per chip
-gpgpu_dram_return_queue_size                  116 # 0 = unlimited (default); # entries per chip
-gpgpu_dram_buswidth                    4 # default = 4 bytes (8 bytes per cycle at DDR)
-gpgpu_dram_burst_length                    8 # Burst length of each DRAM request (default = 4 data bus cycle)
-dram_data_command_freq_ratio                    4 # Frequency ratio between DRAM data bus and command bus (default = 2 times, i.e. DDR)
-gpgpu_dram_timing_opt nbk=16:CCD=2:RRD=6:RCD=12:RAS=28:RP=12:RC=40: CL=12:WL=4:CDLR=5:WR=12:nbkgrp=4:CCDL=3:RTPL=2 # DRAM timing parameters = {nbk:tCCD:tRRD:tRCD:tRAS:tRP:tRC:CL:WL:tCDLR:tWR:nbkgrp:tCCDL:tRTPL}
-rop_latency                          120 # ROP queue latency (default 85)
-dram_latency                         100 # DRAM latency (default 30)
-gpgpu_mem_addr_mapping dramid@8;00000000.00000000.00000000.00000000.0000RRRR.RRRRRRRR.BBBCCCCB.CCSSSSSS # mapping memory address to dram model {dramid@<start bit>;<memory address map>}
-gpgpu_mem_addr_test                    0 # run sweep test to check address mapping for aliased address
-gpgpu_mem_address_mask                    1 # 0 = old addressing mask, 1 = new addressing mask, 2 = new add. mask + flipped bank sel and chip sel bits
-gpuwattch_xml_file  gpuwattch_gtx480.xml # GPUWattch XML file
-power_simulation_enabled                    1 # Turn on power simulator (1=On, 0=Off)
-power_per_cycle_dump                    0 # Dump detailed power output each cycle
-power_trace_enabled                    0 # produce a file for the power trace (1=On, 0=Off)
-power_trace_zlevel                     6 # Compression level of the power trace output log (0=no comp, 9=highest)
-steady_power_levels_enabled                    0 # produce a file for the steady power levels (1=On, 0=Off)
-steady_state_definition                  8:4 # allowed deviation:number of samples
-gpgpu_max_cycle                        0 # terminates gpu simulation early (0 = no limit)
-gpgpu_max_insn                         0 # terminates gpu simulation early (0 = no limit)
-gpgpu_max_cta                          0 # terminates gpu simulation early (0 = no limit)
-gpgpu_runtime_stat                   500 # display runtime statistics such as dram utilization {<freq>:<flag>}
-liveness_message_freq                    1 # Minimum number of seconds between simulation liveness messages (0 = always print)
-gpgpu_flush_l1_cache                    0 # Flush L1 cache at the end of each kernel call
-gpgpu_flush_l2_cache                    0 # Flush L2 cache at the end of each kernel call
-gpgpu_deadlock_detect                    1 # Stop the simulation at deadlock (1=on (default), 0=off)
-gpgpu_ptx_instruction_classification                    0 # if enabled will classify ptx instruction types per kernel (Max 255 kernels now)
-gpgpu_ptx_sim_mode                     0 # Select between Performance (default) or Functional simulation (1)
-gpgpu_clock_domains 700.0:700.0:700.0:924.0 # Clock Domain Frequencies in MhZ {<Core Clock>:<ICNT Clock>:<L2 Clock>:<DRAM Clock>}
-gpgpu_max_concurrent_kernel                    8 # maximum kernels that can run concurrently on GPU
-gpgpu_cflog_interval                    0 # Interval between each snapshot in control flow logger
-visualizer_enabled                     0 # Turn on visualizer output (1=On, 0=Off)
-visualizer_outputfile                 NULL # Specifies the output log file for visualizer
-visualizer_zlevel                      6 # Compression level of the visualizer output log (0=no comp, 9=highest)
-trace_enabled                          0 # Turn on traces
-trace_components                    none # comma seperated list of traces to enable. Complete list found in trace_streams.tup. Default none
-trace_sampling_core                    0 # The core which is printed using CORE_DPRINTF. Default 0
-trace_sampling_memory_partition                   -1 # The memory partition which is printed using MEMPART_DPRINTF. Default -1 (i.e. all)
-enable_ptx_file_line_stats                    1 # Turn on PTX source line statistic profiling. (1 = On)
-ptx_line_stats_filename gpgpu_inst_stats.txt # Output file for PTX source line statistics.
-save_embedded_ptx                      0 # saves ptx files embedded in binary as <n>.ptx
-keep                                   0 # keep intermediate files created by GPGPU-Sim when interfacing with external programs
-gpgpu_ptx_save_converted_ptxplus                    0 # Saved converted ptxplus to a file
-ptx_opcode_latency_int         4,13,4,5,145 # Opcode latencies for integers <ADD,MAX,MUL,MAD,DIV>Default 1,1,19,25,145
-ptx_opcode_latency_fp          4,13,4,5,39 # Opcode latencies for single precision floating points <ADD,MAX,MUL,MAD,DIV>Default 1,1,1,1,30
-ptx_opcode_latency_dp         8,19,8,8,330 # Opcode latencies for double precision floating points <ADD,MAX,MUL,MAD,DIV>Default 8,8,8,8,335
-ptx_opcode_initiation_int            1,2,2,1,8 # Opcode initiation intervals for integers <ADD,MAX,MUL,MAD,DIV>Default 1,1,4,4,32
-ptx_opcode_initiation_fp            1,2,1,1,4 # Opcode initiation intervals for single precision floating points <ADD,MAX,MUL,MAD,DIV>Default 1,1,1,1,5
-ptx_opcode_initiation_dp         8,16,8,8,130 # Opcode initiation intervals for double precision floating points <ADD,MAX,MUL,MAD,DIV>Default 8,8,8,8,130
DRAM Timing Options:
nbk                                    16 # number of banks
CCD                                     2 # column to column delay
RRD                                     6 # minimal delay between activation of rows in different banks
RCD                                    12 # row to column delay
RAS                                    28 # time needed to activate row
RP                                     12 # time needed to precharge (deactivate) row
RC                                     40 # row cycle time
CDLR                                    5 # switching from write to read (changes tWTR)
WR                                     12 # last data-in to row precharge
CL                                     12 # CAS latency
WL                                      4 # Write latency
nbkgrp                                  4 # number of bank groups
CCDL                                    3 # column to column delay between accesses to different bank groups
RTPL                                    2 # read to precharge delay between accesses to different bank groups
Total number of memory sub partition = 12
addr_dec_mask[CHIP]  = 0000000000000000 	high:64 low:0
addr_dec_mask[BK]    = 000000000000e100 	high:16 low:8
addr_dec_mask[ROW]   = 000000000fff0000 	high:28 low:16
addr_dec_mask[COL]   = 0000000000001eff 	high:13 low:0
addr_dec_mask[BURST] = 000000000000003f 	high:6 low:0
sub_partition_id_mask = 0000000000000100
GPGPU-Sim uArch: clock freqs: 700000000.000000:700000000.000000:700000000.000000:924000000.000000
GPGPU-Sim uArch: clock periods: 0.00000000142857142857:0.00000000142857142857:0.00000000142857142857:0.00000000108225108225
*** Initializing Memory Statistics ***
GPGPU-Sim uArch: interconnect node map (shaderID+MemID to icntID)
GPGPU-Sim uArch: Memory nodes ID start from index: 15
GPGPU-Sim uArch:    0   1   2   3   4
GPGPU-Sim uArch:    5   6   7   8   9
GPGPU-Sim uArch:   10  11  12  13  14
GPGPU-Sim uArch:   15  16  17  18  19
GPGPU-Sim uArch:   20  21  22  23  24
GPGPU-Sim uArch:   25  26
GPGPU-Sim uArch: interconnect node reverse map (icntID to shaderID+MemID)
GPGPU-Sim uArch: Memory nodes start from ID: 15
GPGPU-Sim uArch:    0   1   2   3   4
GPGPU-Sim uArch:    5   6   7   8   9
GPGPU-Sim uArch:   10  11  12  13  14
GPGPU-Sim uArch:   15  16  17  18  19
GPGPU-Sim uArch:   20  21  22  23  24
GPGPU-Sim uArch:   25  26
f8ef2438f721c8b40cd84ee198964aba  /home/scratch/adwait/applications/benchmarks/CUDA/AES/gpgpu_ptx_sim__AES
GPGPU-Sim uArch: performance model initialization complete.
GPGPU-Sim PTX: __cudaRegisterFatBinary, fat_cubin_handle = 1, filename=aesHost.cu
self exe links to: /home/scratch/adwait/applications/benchmarks/CUDA/AES/gpgpu_ptx_sim__AES
Running md5sum using "md5sum /home/scratch/adwait/applications/benchmarks/CUDA/AES/gpgpu_ptx_sim__AES "
Running cuobjdump using "$CUDA_INSTALL_PATH/bin/cuobjdump -ptx -elf -sass /home/scratch/adwait/applications/benchmarks/CUDA/AES/gpgpu_ptx_sim__AES > _cuobjdump_complete_output_MGn69V"
Parsing file _cuobjdump_complete_output_MGn69V
######### cuobjdump parser ########
## Adding new section ELF
Adding arch: sm_20
Adding identifier: aesHost.cu
## Adding new section PTX
Adding ptx filename: _cuobjdump_1.ptx
Adding arch: sm_20
Adding identifier: aesHost.cu
Done parsing!!!
GPGPU-Sim PTX: __cudaRegisterFunction _Z13aesDecrypt256PjS_i : hostFun 0x0x40b9ca, fat_cubin_handle = 1
GPGPU-Sim PTX: allocating global region for "texEKey128" from 0x100 to 0x104 (global memory space)
GPGPU-Sim PTX: allocating constant region for "posIdx_E" from 0x120 to 0x140 (global memory space) 1
GPGPU-Sim PTX: allocating constant region for "TBox0" from 0x180 to 0x580 (global memory space) 2
GPGPU-Sim PTX: allocating constant region for "TBox1" from 0x580 to 0x980 (global memory space) 3
GPGPU-Sim PTX: allocating constant region for "TBox2" from 0x980 to 0xd80 (global memory space) 4
GPGPU-Sim PTX: allocating constant region for "TBox3" from 0xd80 to 0x1180 (global memory space) 5
GPGPU-Sim PTX: allocating shared region for "__cuda___cuda_local_var_34343_33_non_const_tBox1Block20" from 0x0 to 0x400 (shared memory space)
GPGPU-Sim PTX: allocating shared region for "__cuda___cuda_local_var_34345_33_non_const_tBox3Block1044" from 0x400 to 0x800 (shared memory space)
GPGPU-Sim PTX: allocating shared region for "__cuda___cuda_local_var_34338_36_non_const_stageBlock12068" from 0x800 to 0xc00 (shared memory space)
GPGPU-Sim PTX: allocating shared region for "__cuda___cuda_local_var_34342_33_non_const_tBox0Block3092" from 0xc00 to 0x1000 (shared memory space)
GPGPU-Sim PTX: allocating shared region for "__cuda___cuda_local_var_34344_33_non_const_tBox2Block4116" from 0x1000 to 0x1400 (shared memory space)
GPGPU-Sim PTX: allocating shared region for "__cuda___cuda_local_var_34339_33_non_const_stageBlock25140" from 0x1400 to 0x1800 (shared memory space)
GPGPU-Sim PTX: instruction assembly for function '_Z13aesEncrypt128PjS_i'...   done.
GPGPU-Sim PTX: finding reconvergence points for '_Z13aesEncrypt128PjS_i'...
GPGPU-Sim PTX: Finding dominators for '_Z13aesEncrypt128PjS_i'...
GPGPU-Sim PTX: Finding immediate dominators for '_Z13aesEncrypt128PjS_i'...
GPGPU-Sim PTX: Finding postdominators for '_Z13aesEncrypt128PjS_i'...
GPGPU-Sim PTX: Finding immediate postdominators for '_Z13aesEncrypt128PjS_i'...
GPGPU-Sim PTX: pre-decoding instructions for '_Z13aesEncrypt128PjS_i'...
GPGPU-Sim PTX: reconvergence points for _Z13aesEncrypt128PjS_i...
GPGPU-Sim PTX: ... end of reconvergence points for _Z13aesEncrypt128PjS_i
GPGPU-Sim PTX: ... done pre-decoding instructions for '_Z13aesEncrypt128PjS_i'.
GPGPU-Sim PTX: allocating global region for "texDKey128" from 0x1180 to 0x1184 (global memory space)
GPGPU-Sim PTX: allocating constant region for "posIdx_D" from 0x11a0 to 0x11c0 (global memory space) 6
GPGPU-Sim PTX: allocating constant region for "TBoxi0" from 0x1200 to 0x1600 (global memory space) 7
GPGPU-Sim PTX: allocating constant region for "TBoxi1" from 0x1600 to 0x1a00 (global memory space) 8
GPGPU-Sim PTX: allocating constant region for "TBoxi2" from 0x1a00 to 0x1e00 (global memory space) 9
GPGPU-Sim PTX: allocating constant region for "TBoxi3" from 0x1e00 to 0x2200 (global memory space) 10
GPGPU-Sim PTX: allocating constant region for "inv_SBox" from 0x2200 to 0x2600 (global memory space) 11
GPGPU-Sim PTX: allocating shared region for "__cuda___cuda_local_var_34698_36_non_const_tBox1Block6188" from 0x0 to 0x400 (shared memory space)
GPGPU-Sim PTX: allocating shared region for "__cuda___cuda_local_var_34700_36_non_const_tBox3Block7212" from 0x400 to 0x800 (shared memory space)
GPGPU-Sim PTX: allocating shared region for "__cuda___cuda_local_var_34695_36_non_const_stageBlock18236" from 0x800 to 0xc00 (shared memory space)
GPGPU-Sim PTX: allocating shared region for "__cuda___cuda_local_var_34697_36_non_const_tBox0Block9260" from 0xc00 to 0x1000 (shared memory space)
GPGPU-Sim PTX: allocating shared region for "__cuda___cuda_local_var_34699_36_non_const_tBox2Block10284" from 0x1000 to 0x1400 (shared memory space)
GPGPU-Sim PTX: allocating shared region for "__cuda___cuda_local_var_34701_36_non_const_invSBoxBlock11308" from 0x1400 to 0x1800 (shared memory space)
GPGPU-Sim PTX: allocating shared region for "__cuda___cuda_local_var_34696_33_non_const_stageBlock212332" from 0x1800 to 0x1c00 (shared memory space)
GPGPU-Sim PTX: instruction assembly for function '_Z13aesDecrypt128PjS_i'...   done.
GPGPU-Sim PTX: finding reconvergence points for '_Z13aesDecrypt128PjS_i'...
GPGPU-Sim PTX: Finding dominators for '_Z13aesDecrypt128PjS_i'...
GPGPU-Sim PTX: Finding immediate dominators for '_Z13aesDecrypt128PjS_i'...
GPGPU-Sim PTX: Finding postdominators for '_Z13aesDecrypt128PjS_i'...
GPGPU-Sim PTX: Finding immediate postdominators for '_Z13aesDecrypt128PjS_i'...
GPGPU-Sim PTX: pre-decoding instructions for '_Z13aesDecrypt128PjS_i'...
GPGPU-Sim PTX: reconvergence points for _Z13aesDecrypt128PjS_i...
GPGPU-Sim PTX: ... end of reconvergence points for _Z13aesDecrypt128PjS_i
GPGPU-Sim PTX: ... done pre-decoding instructions for '_Z13aesDecrypt128PjS_i'.
GPGPU-Sim PTX: allocating global region for "texEKey" from 0x2600 to 0x2604 (global memory space)
GPGPU-Sim PTX: allocating shared region for "__cuda___cuda_local_var_35052_33_non_const_tBox0Block13380" from 0x0 to 0x400 (shared memory space)
GPGPU-Sim PTX: allocating shared region for "__cuda___cuda_local_var_35054_33_non_const_tBox2Block14404" from 0x400 to 0x800 (shared memory space)
GPGPU-Sim PTX: allocating shared region for "__cuda___cuda_local_var_35053_33_non_const_tBox1Block15428" from 0x800 to 0xc00 (shared memory space)
GPGPU-Sim PTX: allocating shared region for "__cuda___cuda_local_var_35055_33_non_const_tBox3Block16452" from 0xc00 to 0x1000 (shared memory space)
GPGPU-Sim PTX: allocating shared region for "__cuda___cuda_local_var_35048_36_non_const_stageBlock117476" from 0x1000 to 0x1400 (shared memory space)
GPGPU-Sim PTX: allocating shared region for "__cuda___cuda_local_var_35049_33_non_const_stageBlock218500" from 0x1400 to 0x1800 (shared memory space)
GPGPU-Sim PTX: instruction assembly for function '_Z13aesEncrypt256PjS_i'...   done.
GPGPU-Sim PTX: finding reconvergence points for '_Z13aesEncrypt256PjS_i'...
GPGPU-Sim PTX: Finding dominators for '_Z13aesEncrypt256PjS_i'...
GPGPU-Sim PTX: Finding immediate dominators for '_Z13aesEncrypt256PjS_i'...
GPGPU-Sim PTX: Finding postdominators for '_Z13aesEncrypt256PjS_i'...
GPGPU-Sim PTX: Finding immediate postdominators for '_Z13aesEncrypt256PjS_i'...
GPGPU-Sim PTX: pre-decoding instructions for '_Z13aesEncrypt256PjS_i'...
GPGPU-Sim PTX: reconvergence points for _Z13aesEncrypt256PjS_i...
GPGPU-Sim PTX: ... end of reconvergence points for _Z13aesEncrypt256PjS_i
GPGPU-Sim PTX: ... done pre-decoding instructions for '_Z13aesEncrypt256PjS_i'.
GPGPU-Sim PTX: allocating global region for "texDKey" from 0x2604 to 0x2608 (global memory space)
GPGPU-Sim PTX: allocating shared region for "__cuda___cuda_local_var_35498_36_non_const_tBox0Block19548" from 0x0 to 0x400 (shared memory space)
GPGPU-Sim PTX: allocating shared region for "__cuda___cuda_local_var_35500_36_non_const_tBox2Block20572" from 0x400 to 0x800 (shared memory space)
GPGPU-Sim PTX: allocating shared region for "__cuda___cuda_local_var_35502_36_non_const_invSBoxBlock21596" from 0x800 to 0xc00 (shared memory space)
GPGPU-Sim PTX: allocating shared region for "__cuda___cuda_local_var_35499_36_non_const_tBox1Block22620" from 0xc00 to 0x1000 (shared memory space)
GPGPU-Sim PTX: allocating shared region for "__cuda___cuda_local_var_35501_36_non_const_tBox3Block23644" from 0x1000 to 0x1400 (shared memory space)
GPGPU-Sim PTX: allocating shared region for "__cuda___cuda_local_var_35496_36_non_const_stageBlock124668" from 0x1400 to 0x1800 (shared memory space)
GPGPU-Sim PTX: allocating shared region for "__cuda___cuda_local_var_35497_33_non_const_stageBlock225692" from 0x1800 to 0x1c00 (shared memory space)
GPGPU-Sim PTX: instruction assembly for function '_Z13aesDecrypt256PjS_i'...   done.
GPGPU-Sim PTX: finding reconvergence points for '_Z13aesDecrypt256PjS_i'...
GPGPU-Sim PTX: Finding dominators for '_Z13aesDecrypt256PjS_i'...
GPGPU-Sim PTX: Finding immediate dominators for '_Z13aesDecrypt256PjS_i'...
GPGPU-Sim PTX: Finding postdominators for '_Z13aesDecrypt256PjS_i'...
GPGPU-Sim PTX: Finding immediate postdominators for '_Z13aesDecrypt256PjS_i'...
GPGPU-Sim PTX: pre-decoding instructions for '_Z13aesDecrypt256PjS_i'...
GPGPU-Sim PTX: reconvergence points for _Z13aesDecrypt256PjS_i...
GPGPU-Sim PTX: ... end of reconvergence points for _Z13aesDecrypt256PjS_i
GPGPU-Sim PTX: ... done pre-decoding instructions for '_Z13aesDecrypt256PjS_i'.
GPGPU-Sim PTX: finished parsing EMBEDDED .ptx file _1.ptx
Adding _cuobjdump_1.ptx with cubin handle 1
GPGPU-Sim PTX: extracting embedded .ptx to temporary file "_ptx_k8gSgb"
Running: cat _ptx_k8gSgb | sed 's/.version 1.5/.version 1.4/' | sed 's/, texmode_independent//' | sed 's/\(\.extern \.const\[1\] .b8 \w\+\)\[\]/\1\[1\]/' | sed 's/const\[.\]/const\[0\]/g' > _ptx2_G9Dcqq
GPGPU-Sim PTX: generating ptxinfo using "$CUDA_INSTALL_PATH/bin/ptxas --gpu-name=sm_20 -v _ptx2_G9Dcqq --output-file  /dev/null 2> _ptx_k8gSgbinfo"
GPGPU-Sim PTX: Kernel '_Z13aesDecrypt256PjS_i' : regs=15, lmem=0, smem=7168, cmem=9332
GPGPU-Sim PTX: Kernel '_Z13aesEncrypt256PjS_i' : regs=15, lmem=0, smem=6144, cmem=9332
GPGPU-Sim PTX: Kernel '_Z13aesDecrypt128PjS_i' : regs=15, lmem=0, smem=7168, cmem=9332
GPGPU-Sim PTX: Kernel '_Z13aesEncrypt128PjS_i' : regs=15, lmem=0, smem=6144, cmem=9332
GPGPU-Sim PTX: removing ptxinfo using "rm -f _ptx_k8gSgb _ptx2_G9Dcqq _ptx_k8gSgbinfo"
GPGPU-Sim PTX: loading globals with explicit initializers... 
GPGPU-Sim PTX: finished loading globals (0 bytes total).
GPGPU-Sim PTX: loading constants with explicit initializers...  done.
GPGPU-Sim PTX: __cudaRegisterFunction _Z13aesEncrypt256PjS_i : hostFun 0x0x40b90b, fat_cubin_handle = 1
GPGPU-Sim PTX: __cudaRegisterFunction _Z13aesDecrypt128PjS_i : hostFun 0x0x40b84c, fat_cubin_handle = 1
GPGPU-Sim PTX: __cudaRegisterFunction _Z13aesEncrypt128PjS_i : hostFun 0x0x40b78d, fat_cubin_handle = 1
GPGPU-Sim PTX: __cudaRegisterVar: hostVar = 0x644420; deviceAddress = posIdx_E; deviceName = posIdx_E
GPGPU-Sim PTX: __cudaRegisterVar: Registering const memory space of 32 bytes
GPGPU-Sim PTX registering constant posIdx_E (32 bytes) to name mapping
GPGPU-Sim PTX: __cudaRegisterVar: hostVar = 0x644440; deviceAddress = TBox0; deviceName = TBox0
GPGPU-Sim PTX: __cudaRegisterVar: Registering const memory space of 1024 bytes
GPGPU-Sim PTX registering constant TBox0 (1024 bytes) to name mapping
GPGPU-Sim PTX: __cudaRegisterVar: hostVar = 0x644840; deviceAddress = TBox1; deviceName = TBox1
GPGPU-Sim PTX: __cudaRegisterVar: Registering const memory space of 1024 bytes
GPGPU-Sim PTX registering constant TBox1 (1024 bytes) to name mapping
GPGPU-Sim PTX: __cudaRegisterVar: hostVar = 0x644c40; deviceAddress = TBox2; deviceName = TBox2
GPGPU-Sim PTX: __cudaRegisterVar: Registering const memory space of 1024 bytes
GPGPU-Sim PTX registering constant TBox2 (1024 bytes) to name mapping
GPGPU-Sim PTX: __cudaRegisterVar: hostVar = 0x645040; deviceAddress = TBox3; deviceName = TBox3
GPGPU-Sim PTX: __cudaRegisterVar: Registering const memory space of 1024 bytes
GPGPU-Sim PTX registering constant TBox3 (1024 bytes) to name mapping
GPGPU-Sim PTX: __cudaRegisterVar: hostVar = 0x645440; deviceAddress = posIdx_D; deviceName = posIdx_D
GPGPU-Sim PTX: __cudaRegisterVar: Registering const memory space of 32 bytes
GPGPU-Sim PTX registering constant posIdx_D (32 bytes) to name mapping
GPGPU-Sim PTX: __cudaRegisterVar: hostVar = 0x645460; deviceAddress = TBoxi0; deviceName = TBoxi0
GPGPU-Sim PTX: __cudaRegisterVar: Registering const memory space of 1024 bytes
GPGPU-Sim PTX registering constant TBoxi0 (1024 bytes) to name mapping
GPGPU-Sim PTX: __cudaRegisterVar: hostVar = 0x645860; deviceAddress = TBoxi1; deviceName = TBoxi1
GPGPU-Sim PTX: __cudaRegisterVar: Registering const memory space of 1024 bytes
GPGPU-Sim PTX registering constant TBoxi1 (1024 bytes) to name mapping
GPGPU-Sim PTX: __cudaRegisterVar: hostVar = 0x645c60; deviceAddress = TBoxi2; deviceName = TBoxi2
GPGPU-Sim PTX: __cudaRegisterVar: Registering const memory space of 1024 bytes
GPGPU-Sim PTX registering constant TBoxi2 (1024 bytes) to name mapping
GPGPU-Sim PTX: __cudaRegisterVar: hostVar = 0x646060; deviceAddress = TBoxi3; deviceName = TBoxi3
GPGPU-Sim PTX: __cudaRegisterVar: Registering const memory space of 1024 bytes
GPGPU-Sim PTX registering constant TBoxi3 (1024 bytes) to name mapping
GPGPU-Sim PTX: __cudaRegisterVar: hostVar = 0x646460; deviceAddress = inv_SBox; deviceName = inv_SBox
GPGPU-Sim PTX: __cudaRegisterVar: Registering const memory space of 1024 bytes
GPGPU-Sim PTX registering constant inv_SBox (1024 bytes) to name mapping
GPGPU-Sim PTX: in __cudaRegisterTexture:
GPGPU-Sim PTX:   int dim = 1
GPGPU-Sim PTX:   int norm = 0
GPGPU-Sim PTX:   int ext = 0
GPGPU-Sim PTX:   Execution warning: Not finished implementing "void __cudaRegisterTexture(void**, const textureReference*, const void**, const char*, int, int, int)"
GPGPU-Sim PTX: in __cudaRegisterTexture:
GPGPU-Sim PTX:   int dim = 1
GPGPU-Sim PTX:   int norm = 0
GPGPU-Sim PTX:   int ext = 0
GPGPU-Sim PTX:   Execution warning: Not finished implementing "void __cudaRegisterTexture(void**, const textureReference*, const void**, const char*, int, int, int)"
GPGPU-Sim PTX: in __cudaRegisterTexture:
GPGPU-Sim PTX:   int dim = 1
GPGPU-Sim PTX:   int norm = 0
GPGPU-Sim PTX:   int ext = 0
GPGPU-Sim PTX:   Execution warning: Not finished implementing "void __cudaRegisterTexture(void**, const textureReference*, const void**, const char*, int, int, int)"
GPGPU-Sim PTX: in __cudaRegisterTexture:
GPGPU-Sim PTX:   int dim = 1
GPGPU-Sim PTX:   int norm = 0
GPGPU-Sim PTX:   int ext = 0
GPGPU-Sim PTX:   Execution warning: Not finished implementing "void __cudaRegisterTexture(void**, const textureReference*, const void**, const char*, int, int, int)"

###############################################################

AES - CUDA by Svetlin Manavski)

AES 128 is running....

Input file size: 262198 Bytes

Key: 0123456789abcdef
GPGPU-Sim PTX: in cudaBindTexture: sizeof(struct textureReference) = 104
GPGPU-Sim PTX:   size = 176
GPGPU-Sim PTX:   texref = 0x646860, array = 0x210d4b0
GPGPU-Sim PTX:   devPtr32 = 80040400
GPGPU-Sim PTX:   Name corresponding to textureReference: texEKey128
GPGPU-Sim PTX:   ChannelFormatDesc: x=32, y=0, z=0, w=0
GPGPU-Sim PTX:   Texture Normalized? = 0
GPGPU-Sim PTX:   texel size = 4
GPGPU-Sim PTX:   texture cache linesize = 128
GPGPU-Sim PTX:   Tx = 8; Ty = 4, Tx_numbits = 3, Ty_numbits = 2
GPGPU-Sim PTX:   Texel size = 4 bytes; texel_size_numbits = 2
GPGPU-Sim PTX:   Binding texture to array starting at devPtr32 = 0x80040400
GPGPU-Sim PTX:   Texel size = 4 bytes
GPGPU-Sim PTX: devPtr = 0xffffffff80040400
GPGPU-Sim PTX: in cudaBindTexture: sizeof(struct textureReference) = 104
GPGPU-Sim PTX:   size = 176
GPGPU-Sim PTX:   texref = 0x6468e0, array = 0x210d570
GPGPU-Sim PTX:   devPtr32 = 80040400
GPGPU-Sim PTX:   Name corresponding to textureReference: texDKey128
GPGPU-Sim PTX:   ChannelFormatDesc: x=32, y=0, z=0, w=0
GPGPU-Sim PTX:   Texture Normalized? = 0
GPGPU-Sim PTX:   texel size = 4
GPGPU-Sim PTX:   texture cache linesize = 128
GPGPU-Sim PTX:   Tx = 8; Ty = 4, Tx_numbits = 3, Ty_numbits = 2
GPGPU-Sim PTX:   Texel size = 4 bytes; texel_size_numbits = 2
GPGPU-Sim PTX:   Binding texture to array starting at devPtr32 = 0x80040400
GPGPU-Sim PTX:   Texel size = 4 bytes
GPGPU-Sim PTX: devPtr = 0xffffffff80040400
GPGPU-Sim PTX: in cudaBindTexture: sizeof(struct textureReference) = 104
GPGPU-Sim PTX:   size = 176
GPGPU-Sim PTX:   texref = 0x646960, array = 0x210d630
GPGPU-Sim PTX:   devPtr32 = 80040400
GPGPU-Sim PTX:   Name corresponding to textureReference: texEKey
GPGPU-Sim PTX:   ChannelFormatDesc: x=32, y=0, z=0, w=0
GPGPU-Sim PTX:   Texture Normalized? = 0
GPGPU-Sim PTX:   texel size = 4
GPGPU-Sim PTX:   texture cache linesize = 128
GPGPU-Sim PTX:   Tx = 8; Ty = 4, Tx_numbits = 3, Ty_numbits = 2
GPGPU-Sim PTX:   Texel size = 4 bytes; texel_size_numbits = 2
GPGPU-Sim PTX:   Binding texture to array starting at devPtr32 = 0x80040400
GPGPU-Sim PTX:   Texel size = 4 bytes
GPGPU-Sim PTX: devPtr = 0xffffffff80040400
GPGPU-Sim PTX: in cudaBindTexture: sizeof(struct textureReference) = 104
GPGPU-Sim PTX:   size = 176
GPGPU-Sim PTX:   texref = 0x6469e0, array = 0x210d6f0
GPGPU-Sim PTX:   devPtr32 = 80040400
GPGPU-Sim PTX:   Name corresponding to textureReference: texDKey
GPGPU-Sim PTX:   ChannelFormatDesc: x=32, y=0, z=0, w=0
GPGPU-Sim PTX:   Texture Normalized? = 0
GPGPU-Sim PTX:   texel size = 4
GPGPU-Sim PTX:   texture cache linesize = 128
GPGPU-Sim PTX:   Tx = 8; Ty = 4, Tx_numbits = 3, Ty_numbits = 2
GPGPU-Sim PTX:   Texel size = 4 bytes; texel_size_numbits = 2
GPGPU-Sim PTX:   Binding texture to array starting at devPtr32 = 0x80040400
GPGPU-Sim PTX:   Texel size = 4 bytes
GPGPU-Sim PTX: devPtr = 0xffffffff80040400

ENCRYPTION.....


GPGPU-Sim PTX: cudaLaunch for 0x0x40b78d (mode=performance simulation) on stream 0
GPGPU-Sim PTX: pushing kernel '_Z13aesEncrypt128PjS_i' to stream 0, gridDim= (257,1,1) blockDim = (256,1,1) 
kernel '_Z13aesEncrypt128PjS_i' transfer to GPU hardware scheduler
GPGPU-Sim uArch: Shader 1 bind to kernel 1 '_Z13aesEncrypt128PjS_i'
GPGPU-Sim uArch: CTA/core = 6, limited by: threads
GPGPU-Sim uArch: core:  1, cta: 0 initialized @(1,0)
GPGPU-Sim uArch: Shader 2 bind to kernel 1 '_Z13aesEncrypt128PjS_i'
GPGPU-Sim uArch: core:  2, cta: 0 initialized @(1,0)
GPGPU-Sim uArch: Shader 3 bind to kernel 1 '_Z13aesEncrypt128PjS_i'
GPGPU-Sim uArch: core:  3, cta: 0 initialized @(1,0)
GPGPU-Sim uArch: Shader 4 bind to kernel 1 '_Z13aesEncrypt128PjS_i'
GPGPU-Sim uArch: core:  4, cta: 0 initialized @(1,0)
GPGPU-Sim uArch: Shader 5 bind to kernel 1 '_Z13aesEncrypt128PjS_i'
GPGPU-Sim uArch: core:  5, cta: 0 initialized @(1,0)
GPGPU-Sim uArch: Shader 6 bind to kernel 1 '_Z13aesEncrypt128PjS_i'
GPGPU-Sim uArch: core:  6, cta: 0 initialized @(1,0)
GPGPU-Sim uArch: Shader 7 bind to kernel 1 '_Z13aesEncrypt128PjS_i'
GPGPU-Sim uArch: core:  7, cta: 0 initialized @(1,0)
GPGPU-Sim uArch: Shader 8 bind to kernel 1 '_Z13aesEncrypt128PjS_i'
GPGPU-Sim uArch: core:  8, cta: 0 initialized @(1,0)
GPGPU-Sim uArch: Shader 9 bind to kernel 1 '_Z13aesEncrypt128PjS_i'
GPGPU-Sim uArch: core:  9, cta: 0 initialized @(1,0)
GPGPU-Sim uArch: Shader 10 bind to kernel 1 '_Z13aesEncrypt128PjS_i'
GPGPU-Sim uArch: core: 10, cta: 0 initialized @(1,0)
GPGPU-Sim uArch: Shader 11 bind to kernel 1 '_Z13aesEncrypt128PjS_i'
GPGPU-Sim uArch: core: 11, cta: 0 initialized @(1,0)
GPGPU-Sim uArch: Shader 12 bind to kernel 1 '_Z13aesEncrypt128PjS_i'
GPGPU-Sim uArch: core: 12, cta: 0 initialized @(1,0)
GPGPU-Sim uArch: Shader 13 bind to kernel 1 '_Z13aesEncrypt128PjS_i'
GPGPU-Sim uArch: core: 13, cta: 0 initialized @(1,0)
GPGPU-Sim uArch: Shader 14 bind to kernel 1 '_Z13aesEncrypt128PjS_i'
GPGPU-Sim uArch: core: 14, cta: 0 initialized @(1,0)
GPGPU-Sim uArch: Shader 0 bind to kernel 1 '_Z13aesEncrypt128PjS_i'
GPGPU-Sim uArch: core:  0, cta: 0 initialized @(1,0)
GPGPU-Sim uArch: core:  1, cta: 1 initialized @(2,0)
GPGPU-Sim uArch: core:  2, cta: 1 initialized @(2,0)
GPGPU-Sim uArch: core:  3, cta: 1 initialized @(2,0)
GPGPU-Sim uArch: core:  4, cta: 1 initialized @(2,0)
GPGPU-Sim uArch: core:  5, cta: 1 initialized @(2,0)
GPGPU-Sim uArch: core:  6, cta: 1 initialized @(2,0)
GPGPU-Sim uArch: core:  7, cta: 1 initialized @(2,0)
GPGPU-Sim uArch: core:  8, cta: 1 initialized @(2,0)
GPGPU-Sim uArch: core:  9, cta: 1 initialized @(2,0)
GPGPU-Sim uArch: core: 10, cta: 1 initialized @(2,0)
GPGPU-Sim uArch: core: 11, cta: 1 initialized @(2,0)
GPGPU-Sim uArch: core: 12, cta: 1 initialized @(2,0)
GPGPU-Sim uArch: core: 13, cta: 1 initialized @(2,0)
GPGPU-Sim uArch: core: 14, cta: 1 initialized @(2,0)
GPGPU-Sim uArch: core:  0, cta: 1 initialized @(2,0)
GPGPU-Sim uArch: core:  1, cta: 2 initialized @(3,0)
GPGPU-Sim uArch: core:  2, cta: 2 initialized @(3,0)
GPGPU-Sim uArch: core:  3, cta: 2 initialized @(3,0)
GPGPU-Sim uArch: core:  4, cta: 2 initialized @(3,0)
GPGPU-Sim uArch: core:  5, cta: 2 initialized @(3,0)
GPGPU-Sim uArch: core:  6, cta: 2 initialized @(3,0)
GPGPU-Sim uArch: core:  7, cta: 2 initialized @(3,0)
GPGPU-Sim uArch: core:  8, cta: 2 initialized @(3,0)
GPGPU-Sim uArch: core:  9, cta: 2 initialized @(3,0)
GPGPU-Sim uArch: core: 10, cta: 2 initialized @(3,0)
GPGPU-Sim uArch: core: 11, cta: 2 initialized @(3,0)
GPGPU-Sim uArch: core: 12, cta: 2 initialized @(3,0)
GPGPU-Sim uArch: core: 13, cta: 2 initialized @(3,0)
GPGPU-Sim uArch: core: 14, cta: 2 initialized @(3,0)
GPGPU-Sim uArch: core:  0, cta: 2 initialized @(3,0)
GPGPU-Sim uArch: core:  1, cta: 3 initialized @(4,0)
GPGPU-Sim uArch: core:  2, cta: 3 initialized @(4,0)
GPGPU-Sim uArch: core:  3, cta: 3 initialized @(4,0)
GPGPU-Sim uArch: core:  4, cta: 3 initialized @(4,0)
GPGPU-Sim uArch: core:  5, cta: 3 initialized @(4,0)
GPGPU-Sim uArch: core:  6, cta: 3 initialized @(4,0)
GPGPU-Sim uArch: core:  7, cta: 3 initialized @(4,0)
GPGPU-Sim uArch: core:  8, cta: 3 initialized @(4,0)
GPGPU-Sim uArch: core:  9, cta: 3 initialized @(4,0)
GPGPU-Sim uArch: core: 10, cta: 3 initialized @(4,0)
GPGPU-Sim uArch: core: 11, cta: 3 initialized @(4,0)
GPGPU-Sim uArch: core: 12, cta: 3 initialized @(4,0)
GPGPU-Sim uArch: core: 13, cta: 3 initialized @(4,0)
GPGPU-Sim uArch: core: 14, cta: 3 initialized @(4,0)
GPGPU-Sim uArch: core:  0, cta: 3 initialized @(4,0)
GPGPU-Sim uArch: core:  1, cta: 4 initialized @(5,0)
GPGPU-Sim uArch: core:  2, cta: 4 initialized @(5,0)
GPGPU-Sim uArch: core:  3, cta: 4 initialized @(5,0)
GPGPU-Sim uArch: core:  4, cta: 4 initialized @(5,0)
GPGPU-Sim uArch: core:  5, cta: 4 initialized @(5,0)
GPGPU-Sim uArch: core:  6, cta: 4 initialized @(5,0)
GPGPU-Sim uArch: core:  7, cta: 4 initialized @(5,0)
GPGPU-Sim uArch: core:  8, cta: 4 initialized @(5,0)
GPGPU-Sim uArch: core:  9, cta: 4 initialized @(5,0)
GPGPU-Sim uArch: core: 10, cta: 4 initialized @(5,0)
GPGPU-Sim uArch: core: 11, cta: 4 initialized @(5,0)
GPGPU-Sim uArch: core: 12, cta: 4 initialized @(5,0)
GPGPU-Sim uArch: core: 13, cta: 4 initialized @(5,0)
GPGPU-Sim uArch: core: 14, cta: 4 initialized @(5,0)
GPGPU-Sim uArch: core:  0, cta: 4 initialized @(5,0)
GPGPU-Sim uArch: core:  1, cta: 5 initialized @(6,0)
GPGPU-Sim uArch: core:  2, cta: 5 initialized @(6,0)
GPGPU-Sim uArch: core:  3, cta: 5 initialized @(6,0)
GPGPU-Sim uArch: core:  4, cta: 5 initialized @(6,0)
GPGPU-Sim uArch: core:  5, cta: 5 initialized @(6,0)
GPGPU-Sim uArch: core:  6, cta: 5 initialized @(6,0)
GPGPU-Sim uArch: core:  7, cta: 5 initialized @(6,0)
GPGPU-Sim uArch: core:  8, cta: 5 initialized @(6,0)
GPGPU-Sim uArch: core:  9, cta: 5 initialized @(6,0)
GPGPU-Sim uArch: core: 10, cta: 5 initialized @(6,0)
GPGPU-Sim uArch: core: 11, cta: 5 initialized @(6,0)
GPGPU-Sim uArch: core: 12, cta: 5 initialized @(6,0)
GPGPU-Sim uArch: core: 13, cta: 5 initialized @(6,0)
GPGPU-Sim uArch: core: 14, cta: 5 initialized @(6,0)
GPGPU-Sim uArch: core:  0, cta: 5 initialized @(6,0)
GPGPU-Sim PTX: 100000 instructions simulated : ctaid=(53,0,0) tid=(191,0,0)
GPGPU-Sim uArch: cycles simulated: 500  inst.: 159712 (ipc=319.4) sim_rate=159712 (inst/sec) elapsed = 0:0:00:01 / Tue Apr 16 16:54:33 2019
GPGPU-Sim PTX: 200000 instructions simulated : ctaid=(35,0,0) tid=(31,0,0)
GPGPU-Sim PTX: 300000 instructions simulated : ctaid=(49,0,0) tid=(255,0,0)
GPGPU-Sim uArch: cycles simulated: 1000  inst.: 368640 (ipc=368.6) sim_rate=184320 (inst/sec) elapsed = 0:0:00:02 / Tue Apr 16 16:54:34 2019
GPGPU-Sim PTX: 400000 instructions simulated : ctaid=(3,0,0) tid=(159,0,0)
GPGPU-Sim uArch: cycles simulated: 2500  inst.: 415360 (ipc=166.1) sim_rate=138453 (inst/sec) elapsed = 0:0:00:03 / Tue Apr 16 16:54:35 2019
GPGPU-Sim uArch: cycles simulated: 4000  inst.: 439200 (ipc=109.8) sim_rate=109800 (inst/sec) elapsed = 0:0:00:04 / Tue Apr 16 16:54:36 2019
GPGPU-Sim PTX: 500000 instructions simulated : ctaid=(24,0,0) tid=(127,0,0)
GPGPU-Sim uArch: cycles simulated: 6000  inst.: 527168 (ipc=87.9) sim_rate=105433 (inst/sec) elapsed = 0:0:00:05 / Tue Apr 16 16:54:37 2019
GPGPU-Sim PTX: 600000 instructions simulated : ctaid=(43,0,0) tid=(63,0,0)
GPGPU-Sim PTX: 700000 instructions simulated : ctaid=(34,0,0) tid=(127,0,0)
GPGPU-Sim PTX: 800000 instructions simulated : ctaid=(11,0,0) tid=(255,0,0)
GPGPU-Sim PTX: 900000 instructions simulated : ctaid=(4,0,0) tid=(223,0,0)
GPGPU-Sim uArch: cycles simulated: 7000  inst.: 969728 (ipc=138.5) sim_rate=161621 (inst/sec) elapsed = 0:0:00:06 / Tue Apr 16 16:54:38 2019
GPGPU-Sim PTX: 1000000 instructions simulated : ctaid=(66,0,0) tid=(127,0,0)
GPGPU-Sim PTX: 1100000 instructions simulated : ctaid=(26,0,0) tid=(255,0,0)
GPGPU-Sim PTX: 1200000 instructions simulated : ctaid=(47,0,0) tid=(255,0,0)
GPGPU-Sim PTX: 1300000 instructions simulated : ctaid=(63,0,0) tid=(255,0,0)
GPGPU-Sim uArch: cycles simulated: 7500  inst.: 1351072 (ipc=180.1) sim_rate=193010 (inst/sec) elapsed = 0:0:00:07 / Tue Apr 16 16:54:39 2019
GPGPU-Sim PTX: 1400000 instructions simulated : ctaid=(82,0,0) tid=(223,0,0)
GPGPU-Sim PTX: 1500000 instructions simulated : ctaid=(9,0,0) tid=(127,0,0)
GPGPU-Sim PTX: 1600000 instructions simulated : ctaid=(83,0,0) tid=(255,0,0)
GPGPU-Sim uArch: cycles simulated: 8000  inst.: 1685856 (ipc=210.7) sim_rate=210732 (inst/sec) elapsed = 0:0:00:08 / Tue Apr 16 16:54:40 2019
GPGPU-Sim PTX: 1700000 instructions simulated : ctaid=(79,0,0) tid=(159,0,0)
GPGPU-Sim PTX: 1800000 instructions simulated : ctaid=(87,0,0) tid=(223,0,0)
GPGPU-Sim PTX: 1900000 instructions simulated : ctaid=(8,0,0) tid=(255,0,0)
GPGPU-Sim PTX: 2000000 instructions simulated : ctaid=(59,0,0) tid=(95,0,0)
GPGPU-Sim uArch: cycles simulated: 8500  inst.: 2073472 (ipc=243.9) sim_rate=230385 (inst/sec) elapsed = 0:0:00:09 / Tue Apr 16 16:54:41 2019
GPGPU-Sim PTX: 2100000 instructions simulated : ctaid=(60,0,0) tid=(255,0,0)
GPGPU-Sim PTX: 2200000 instructions simulated : ctaid=(0,0,0) tid=(31,0,0)
GPGPU-Sim PTX: 2300000 instructions simulated : ctaid=(67,0,0) tid=(255,0,0)
GPGPU-Sim PTX: 2400000 instructions simulated : ctaid=(8,0,0) tid=(223,0,0)
GPGPU-Sim uArch: cycles simulated: 9000  inst.: 2481056 (ipc=275.7) sim_rate=248105 (inst/sec) elapsed = 0:0:00:10 / Tue Apr 16 16:54:42 2019
GPGPU-Sim PTX: 2500000 instructions simulated : ctaid=(64,0,0) tid=(159,0,0)
GPGPU-Sim PTX: 2600000 instructions simulated : ctaid=(66,0,0) tid=(255,0,0)
GPGPU-Sim PTX: 2700000 instructions simulated : ctaid=(47,0,0) tid=(31,0,0)
GPGPU-Sim PTX: 2800000 instructions simulated : ctaid=(21,0,0) tid=(223,0,0)
GPGPU-Sim uArch: cycles simulated: 9500  inst.: 2855456 (ipc=300.6) sim_rate=259586 (inst/sec) elapsed = 0:0:00:11 / Tue Apr 16 16:54:43 2019
GPGPU-Sim PTX: 2900000 instructions simulated : ctaid=(66,0,0) tid=(95,0,0)
GPGPU-Sim PTX: 3000000 instructions simulated : ctaid=(5,0,0) tid=(127,0,0)
GPGPU-Sim PTX: 3100000 instructions simulated : ctaid=(9,0,0) tid=(255,0,0)
GPGPU-Sim uArch: cycles simulated: 10000  inst.: 3186752 (ipc=318.7) sim_rate=265562 (inst/sec) elapsed = 0:0:00:12 / Tue Apr 16 16:54:44 2019
GPGPU-Sim PTX: 3200000 instructions simulated : ctaid=(45,0,0) tid=(63,0,0)
GPGPU-Sim PTX: 3300000 instructions simulated : ctaid=(82,0,0) tid=(31,0,0)
GPGPU-Sim PTX: 3400000 instructions simulated : ctaid=(27,0,0) tid=(191,0,0)
GPGPU-Sim PTX: 3500000 instructions simulated : ctaid=(54,0,0) tid=(31,0,0)
GPGPU-Sim PTX: 3600000 instructions simulated : ctaid=(71,0,0) tid=(191,0,0)
GPGPU-Sim uArch: cycles simulated: 10500  inst.: 3612288 (ipc=344.0) sim_rate=277868 (inst/sec) elapsed = 0:0:00:13 / Tue Apr 16 16:54:45 2019
GPGPU-Sim PTX: 3700000 instructions simulated : ctaid=(13,0,0) tid=(191,0,0)
GPGPU-Sim PTX: 3800000 instructions simulated : ctaid=(15,0,0) tid=(127,0,0)
GPGPU-Sim PTX: 3900000 instructions simulated : ctaid=(39,0,0) tid=(127,0,0)
GPGPU-Sim uArch: cycles simulated: 11000  inst.: 3918624 (ipc=356.2) sim_rate=279901 (inst/sec) elapsed = 0:0:00:14 / Tue Apr 16 16:54:46 2019
GPGPU-Sim PTX: 4000000 instructions simulated : ctaid=(76,0,0) tid=(31,0,0)
GPGPU-Sim PTX: 4100000 instructions simulated : ctaid=(11,0,0) tid=(95,0,0)
GPGPU-Sim PTX: 4200000 instructions simulated : ctaid=(51,0,0) tid=(159,0,0)
GPGPU-Sim PTX: 4300000 instructions simulated : ctaid=(65,0,0) tid=(127,0,0)
GPGPU-Sim uArch: cycles simulated: 11500  inst.: 4340384 (ipc=377.4) sim_rate=289358 (inst/sec) elapsed = 0:0:00:15 / Tue Apr 16 16:54:47 2019
GPGPU-Sim PTX: 4400000 instructions simulated : ctaid=(21,0,0) tid=(127,0,0)
GPGPU-Sim PTX: 4500000 instructions simulated : ctaid=(2,0,0) tid=(191,0,0)
GPGPU-Sim PTX: 4600000 instructions simulated : ctaid=(58,0,0) tid=(223,0,0)
GPGPU-Sim PTX: 4700000 instructions simulated : ctaid=(14,0,0) tid=(95,0,0)
GPGPU-Sim uArch: cycles simulated: 12000  inst.: 4693056 (ipc=391.1) sim_rate=293316 (inst/sec) elapsed = 0:0:00:16 / Tue Apr 16 16:54:48 2019
GPGPU-Sim PTX: 4800000 instructions simulated : ctaid=(28,0,0) tid=(31,0,0)
GPGPU-Sim PTX: 4900000 instructions simulated : ctaid=(54,0,0) tid=(191,0,0)
GPGPU-Sim PTX: 5000000 instructions simulated : ctaid=(84,0,0) tid=(191,0,0)
GPGPU-Sim PTX: 5100000 instructions simulated : ctaid=(46,0,0) tid=(31,0,0)
GPGPU-Sim uArch: cycles simulated: 12500  inst.: 5104832 (ipc=408.4) sim_rate=300284 (inst/sec) elapsed = 0:0:00:17 / Tue Apr 16 16:54:49 2019
GPGPU-Sim PTX: 5200000 instructions simulated : ctaid=(16,0,0) tid=(159,0,0)
GPGPU-Sim PTX: 5300000 instructions simulated : ctaid=(58,0,0) tid=(31,0,0)
GPGPU-Sim PTX: 5400000 instructions simulated : ctaid=(11,0,0) tid=(31,0,0)
GPGPU-Sim uArch: cycles simulated: 13000  inst.: 5465216 (ipc=420.4) sim_rate=303623 (inst/sec) elapsed = 0:0:00:18 / Tue Apr 16 16:54:50 2019
GPGPU-Sim PTX: 5500000 instructions simulated : ctaid=(41,0,0) tid=(95,0,0)
GPGPU-Sim PTX: 5600000 instructions simulated : ctaid=(60,0,0) tid=(63,0,0)
GPGPU-Sim PTX: 5700000 instructions simulated : ctaid=(62,0,0) tid=(191,0,0)
GPGPU-Sim PTX: 5800000 instructions simulated : ctaid=(12,0,0) tid=(191,0,0)
GPGPU-Sim uArch: cycles simulated: 13500  inst.: 5882912 (ipc=435.8) sim_rate=309626 (inst/sec) elapsed = 0:0:00:19 / Tue Apr 16 16:54:51 2019
GPGPU-Sim PTX: 5900000 instructions simulated : ctaid=(1,0,0) tid=(159,0,0)
GPGPU-Sim PTX: 6000000 instructions simulated : ctaid=(75,0,0) tid=(31,0,0)
GPGPU-Sim PTX: 6100000 instructions simulated : ctaid=(4,0,0) tid=(31,0,0)
GPGPU-Sim PTX: 6200000 instructions simulated : ctaid=(43,0,0) tid=(31,0,0)
GPGPU-Sim uArch: cycles simulated: 14000  inst.: 6251136 (ipc=446.5) sim_rate=312556 (inst/sec) elapsed = 0:0:00:20 / Tue Apr 16 16:54:52 2019
GPGPU-Sim PTX: 6300000 instructions simulated : ctaid=(41,0,0) tid=(127,0,0)
GPGPU-Sim PTX: 6400000 instructions simulated : ctaid=(34,0,0) tid=(159,0,0)
GPGPU-Sim PTX: 6500000 instructions simulated : ctaid=(5,0,0) tid=(95,0,0)
GPGPU-Sim PTX: 6600000 instructions simulated : ctaid=(56,0,0) tid=(31,0,0)
GPGPU-Sim uArch: cycles simulated: 14500  inst.: 6663840 (ipc=459.6) sim_rate=317325 (inst/sec) elapsed = 0:0:00:21 / Tue Apr 16 16:54:53 2019
GPGPU-Sim PTX: 6700000 instructions simulated : ctaid=(68,0,0) tid=(255,0,0)
GPGPU-Sim PTX: 6800000 instructions simulated : ctaid=(60,0,0) tid=(191,0,0)
GPGPU-Sim PTX: 6900000 instructions simulated : ctaid=(31,0,0) tid=(31,0,0)
GPGPU-Sim PTX: 7000000 instructions simulated : ctaid=(40,0,0) tid=(127,0,0)
GPGPU-Sim uArch: cycles simulated: 15000  inst.: 7007328 (ipc=467.2) sim_rate=318514 (inst/sec) elapsed = 0:0:00:22 / Tue Apr 16 16:54:54 2019
GPGPU-Sim PTX: 7100000 instructions simulated : ctaid=(47,0,0) tid=(191,0,0)
GPGPU-Sim PTX: 7200000 instructions simulated : ctaid=(6,0,0) tid=(95,0,0)
GPGPU-Sim PTX: 7300000 instructions simulated : ctaid=(18,0,0) tid=(191,0,0)
GPGPU-Sim PTX: 7400000 instructions simulated : ctaid=(79,0,0) tid=(191,0,0)
GPGPU-Sim uArch: cycles simulated: 15500  inst.: 7420608 (ipc=478.7) sim_rate=322635 (inst/sec) elapsed = 0:0:00:23 / Tue Apr 16 16:54:55 2019
GPGPU-Sim PTX: 7500000 instructions simulated : ctaid=(41,0,0) tid=(223,0,0)
GPGPU-Sim PTX: 7600000 instructions simulated : ctaid=(5,0,0) tid=(31,0,0)
GPGPU-Sim PTX: 7700000 instructions simulated : ctaid=(67,0,0) tid=(159,0,0)
GPGPU-Sim uArch: cycles simulated: 16000  inst.: 7760320 (ipc=485.0) sim_rate=323346 (inst/sec) elapsed = 0:0:00:24 / Tue Apr 16 16:54:56 2019
GPGPU-Sim PTX: 7800000 instructions simulated : ctaid=(25,0,0) tid=(95,0,0)
GPGPU-Sim PTX: 7900000 instructions simulated : ctaid=(42,0,0) tid=(31,0,0)
GPGPU-Sim PTX: 8000000 instructions simulated : ctaid=(26,0,0) tid=(95,0,0)
GPGPU-Sim PTX: 8100000 instructions simulated : ctaid=(78,0,0) tid=(127,0,0)
GPGPU-Sim uArch: cycles simulated: 16500  inst.: 8163968 (ipc=494.8) sim_rate=326558 (inst/sec) elapsed = 0:0:00:25 / Tue Apr 16 16:54:57 2019
GPGPU-Sim PTX: 8200000 instructions simulated : ctaid=(85,0,0) tid=(191,0,0)
GPGPU-Sim PTX: 8300000 instructions simulated : ctaid=(4,0,0) tid=(223,0,0)
GPGPU-Sim PTX: 8400000 instructions simulated : ctaid=(14,0,0) tid=(223,0,0)
GPGPU-Sim uArch: cycles simulated: 17000  inst.: 8486368 (ipc=499.2) sim_rate=326398 (inst/sec) elapsed = 0:0:00:26 / Tue Apr 16 16:54:58 2019
GPGPU-Sim PTX: 8500000 instructions simulated : ctaid=(82,0,0) tid=(159,0,0)
GPGPU-Sim PTX: 8600000 instructions simulated : ctaid=(23,0,0) tid=(31,0,0)
GPGPU-Sim PTX: 8700000 instructions simulated : ctaid=(27,0,0) tid=(255,0,0)
GPGPU-Sim PTX: 8800000 instructions simulated : ctaid=(31,0,0) tid=(255,0,0)
GPGPU-Sim uArch: cycles simulated: 17500  inst.: 8893312 (ipc=508.2) sim_rate=329381 (inst/sec) elapsed = 0:0:00:27 / Tue Apr 16 16:54:59 2019
GPGPU-Sim PTX: 8900000 instructions simulated : ctaid=(3,0,0) tid=(223,0,0)
GPGPU-Sim PTX: 9000000 instructions simulated : ctaid=(47,0,0) tid=(95,0,0)
GPGPU-Sim PTX: 9100000 instructions simulated : ctaid=(21,0,0) tid=(159,0,0)
GPGPU-Sim PTX: 9200000 instructions simulated : ctaid=(81,0,0) tid=(159,0,0)
GPGPU-Sim uArch: cycles simulated: 18000  inst.: 9275072 (ipc=515.3) sim_rate=331252 (inst/sec) elapsed = 0:0:00:28 / Tue Apr 16 16:55:00 2019
GPGPU-Sim PTX: 9300000 instructions simulated : ctaid=(14,0,0) tid=(95,0,0)
GPGPU-Sim PTX: 9400000 instructions simulated : ctaid=(30,0,0) tid=(159,0,0)
GPGPU-Sim PTX: 9500000 instructions simulated : ctaid=(62,0,0) tid=(31,0,0)
GPGPU-Sim PTX: 9600000 instructions simulated : ctaid=(5,0,0) tid=(95,0,0)
GPGPU-Sim uArch: cycles simulated: 18500  inst.: 9649792 (ipc=521.6) sim_rate=332751 (inst/sec) elapsed = 0:0:00:29 / Tue Apr 16 16:55:01 2019
GPGPU-Sim PTX: 9700000 instructions simulated : ctaid=(17,0,0) tid=(255,0,0)
GPGPU-Sim PTX: 9800000 instructions simulated : ctaid=(30,0,0) tid=(191,0,0)
GPGPU-Sim PTX: 9900000 instructions simulated : ctaid=(56,0,0) tid=(255,0,0)
GPGPU-Sim PTX: 10000000 instructions simulated : ctaid=(24,0,0) tid=(223,0,0)
GPGPU-Sim uArch: cycles simulated: 19000  inst.: 10008864 (ipc=526.8) sim_rate=322866 (inst/sec) elapsed = 0:0:00:31 / Tue Apr 16 16:55:03 2019
GPGPU-Sim PTX: 10100000 instructions simulated : ctaid=(75,0,0) tid=(191,0,0)
GPGPU-Sim uArch: Shader 1 finished CTA #0 (19174,0), 5 CTAs running
GPGPU-Sim uArch: core:  1, cta: 0 initialized @(19175,0)
GPGPU-Sim uArch: Shader 9 finished CTA #0 (19250,0), 5 CTAs running
GPGPU-Sim uArch: core:  9, cta: 0 initialized @(19251,0)
GPGPU-Sim uArch: Shader 3 finished CTA #0 (19281,0), 5 CTAs running
GPGPU-Sim uArch: core:  3, cta: 0 initialized @(19282,0)
GPGPU-Sim uArch: Shader 2 finished CTA #0 (19290,0), 5 CTAs running
GPGPU-Sim uArch: core:  2, cta: 0 initialized @(19291,0)
GPGPU-Sim uArch: Shader 6 finished CTA #0 (19313,0), 5 CTAs running
GPGPU-Sim uArch: core:  6, cta: 0 initialized @(19314,0)
GPGPU-Sim uArch: Shader 5 finished CTA #0 (19314,0), 5 CTAs running
GPGPU-Sim uArch: core:  5, cta: 0 initialized @(19315,0)
GPGPU-Sim uArch: Shader 4 finished CTA #0 (19330,0), 5 CTAs running
GPGPU-Sim uArch: core:  4, cta: 0 initialized @(19331,0)
GPGPU-Sim uArch: Shader 13 finished CTA #0 (19341,0), 5 CTAs running
GPGPU-Sim uArch: core: 13, cta: 0 initialized @(19342,0)
GPGPU-Sim PTX: 10200000 instructions simulated : ctaid=(79,0,0) tid=(255,0,0)
GPGPU-Sim uArch: Shader 14 finished CTA #0 (19378,0), 5 CTAs running
GPGPU-Sim uArch: core: 14, cta: 0 initialized @(19379,0)
GPGPU-Sim uArch: Shader 1 finished CTA #1 (19409,0), 5 CTAs running
GPGPU-Sim uArch: core:  1, cta: 1 initialized @(19410,0)
GPGPU-Sim uArch: Shader 0 finished CTA #0 (19468,0), 5 CTAs running
GPGPU-Sim uArch: core:  0, cta: 0 initialized @(19469,0)
GPGPU-Sim uArch: Shader 8 finished CTA #0 (19471,0), 5 CTAs running
GPGPU-Sim uArch: core:  8, cta: 0 initialized @(19472,0)
GPGPU-Sim uArch: Shader 10 finished CTA #0 (19475,0), 5 CTAs running
GPGPU-Sim uArch: core: 10, cta: 0 initialized @(19476,0)
GPGPU-Sim uArch: Shader 7 finished CTA #0 (19485,0), 5 CTAs running
GPGPU-Sim uArch: core:  7, cta: 0 initialized @(19486,0)
GPGPU-Sim uArch: cycles simulated: 19500  inst.: 10263040 (ipc=526.3) sim_rate=320720 (inst/sec) elapsed = 0:0:00:32 / Tue Apr 16 16:55:04 2019
GPGPU-Sim uArch: Shader 11 finished CTA #0 (19502,0), 5 CTAs running
GPGPU-Sim uArch: core: 11, cta: 0 initialized @(19503,0)
GPGPU-Sim uArch: Shader 6 finished CTA #1 (19530,0), 5 CTAs running
GPGPU-Sim uArch: core:  6, cta: 1 initialized @(19531,0)
GPGPU-Sim PTX: 10300000 instructions simulated : ctaid=(76,0,0) tid=(159,0,0)
GPGPU-Sim uArch: Shader 9 finished CTA #1 (19561,0), 5 CTAs running
GPGPU-Sim uArch: core:  9, cta: 1 initialized @(19562,0)
GPGPU-Sim uArch: Shader 5 finished CTA #1 (19564,0), 5 CTAs running
GPGPU-Sim uArch: core:  5, cta: 1 initialized @(19565,0)
GPGPU-Sim uArch: Shader 12 finished CTA #0 (19592,0), 5 CTAs running
GPGPU-Sim uArch: core: 12, cta: 0 initialized @(19593,0)
GPGPU-Sim uArch: Shader 13 finished CTA #1 (19620,0), 5 CTAs running
GPGPU-Sim uArch: core: 13, cta: 1 initialized @(19621,0)
GPGPU-Sim uArch: Shader 2 finished CTA #1 (19630,0), 5 CTAs running
GPGPU-Sim uArch: core:  2, cta: 1 initialized @(19631,0)
GPGPU-Sim uArch: Shader 1 finished CTA #2 (19651,0), 5 CTAs running
GPGPU-Sim uArch: core:  1, cta: 2 initialized @(19652,0)
GPGPU-Sim uArch: Shader 14 finished CTA #1 (19721,0), 5 CTAs running
GPGPU-Sim uArch: core: 14, cta: 1 initialized @(19722,0)
GPGPU-Sim PTX: 10400000 instructions simulated : ctaid=(75,0,0) tid=(223,0,0)
GPGPU-Sim uArch: Shader 4 finished CTA #1 (19740,0), 5 CTAs running
GPGPU-Sim uArch: core:  4, cta: 1 initialized @(19741,0)
GPGPU-Sim uArch: Shader 10 finished CTA #1 (19744,0), 5 CTAs running
GPGPU-Sim uArch: core: 10, cta: 1 initialized @(19745,0)
GPGPU-Sim uArch: Shader 3 finished CTA #1 (19747,0), 5 CTAs running
GPGPU-Sim uArch: core:  3, cta: 1 initialized @(19748,0)
GPGPU-Sim uArch: Shader 5 finished CTA #2 (19783,0), 5 CTAs running
GPGPU-Sim uArch: core:  5, cta: 2 initialized @(19784,0)
GPGPU-Sim uArch: Shader 7 finished CTA #1 (19796,0), 5 CTAs running
GPGPU-Sim uArch: core:  7, cta: 1 initialized @(19797,0)
GPGPU-Sim uArch: Shader 0 finished CTA #1 (19798,0), 5 CTAs running
GPGPU-Sim uArch: core:  0, cta: 1 initialized @(19799,0)
GPGPU-Sim uArch: Shader 11 finished CTA #1 (19811,0), 5 CTAs running
GPGPU-Sim uArch: core: 11, cta: 1 initialized @(19812,0)
GPGPU-Sim uArch: Shader 6 finished CTA #2 (19833,0), 5 CTAs running
GPGPU-Sim uArch: core:  6, cta: 2 initialized @(19834,0)
GPGPU-Sim uArch: Shader 12 finished CTA #1 (19864,0), 5 CTAs running
GPGPU-Sim uArch: core: 12, cta: 1 initialized @(19865,0)
GPGPU-Sim uArch: Shader 8 finished CTA #1 (19873,0), 5 CTAs running
GPGPU-Sim uArch: core:  8, cta: 1 initialized @(19874,0)
GPGPU-Sim PTX: 10500000 instructions simulated : ctaid=(84,0,0) tid=(159,0,0)
GPGPU-Sim uArch: Shader 2 finished CTA #2 (19957,0), 5 CTAs running
GPGPU-Sim uArch: core:  2, cta: 2 initialized @(19958,0)
GPGPU-Sim uArch: Shader 5 finished CTA #3 (19969,0), 5 CTAs running
GPGPU-Sim uArch: core:  5, cta: 3 initialized @(19970,0)
GPGPU-Sim uArch: Shader 9 finished CTA #2 (19978,0), 5 CTAs running
GPGPU-Sim uArch: core:  9, cta: 2 initialized @(19979,0)
GPGPU-Sim uArch: cycles simulated: 20000  inst.: 10531616 (ipc=526.6) sim_rate=319139 (inst/sec) elapsed = 0:0:00:33 / Tue Apr 16 16:55:05 2019
GPGPU-Sim uArch: Shader 10 finished CTA #2 (20027,0), 5 CTAs running
GPGPU-Sim uArch: core: 10, cta: 2 initialized @(20028,0)
GPGPU-Sim uArch: Shader 6 finished CTA #3 (20043,0), 5 CTAs running
GPGPU-Sim uArch: core:  6, cta: 3 initialized @(20044,0)
GPGPU-Sim uArch: Shader 0 finished CTA #2 (20076,0), 5 CTAs running
GPGPU-Sim uArch: core:  0, cta: 2 initialized @(20077,0)
GPGPU-Sim uArch: Shader 13 finished CTA #2 (20086,0), 5 CTAs running
GPGPU-Sim uArch: core: 13, cta: 2 initialized @(20087,0)
GPGPU-Sim uArch: Shader 9 finished CTA #3 (20091,0), 5 CTAs running
GPGPU-Sim uArch: core:  9, cta: 3 initialized @(20092,0)
GPGPU-Sim uArch: Shader 4 finished CTA #2 (20102,0), 5 CTAs running
GPGPU-Sim uArch: core:  4, cta: 2 initialized @(20103,0)
GPGPU-Sim PTX: 10600000 instructions simulated : ctaid=(117,0,0) tid=(31,0,0)
GPGPU-Sim uArch: Shader 11 finished CTA #2 (20106,0), 5 CTAs running
GPGPU-Sim uArch: core: 11, cta: 2 initialized @(20107,0)
GPGPU-Sim uArch: Shader 14 finished CTA #2 (20110,0), 5 CTAs running
GPGPU-Sim uArch: core: 14, cta: 2 initialized @(20111,0)
GPGPU-Sim uArch: Shader 3 finished CTA #2 (20127,0), 5 CTAs running
GPGPU-Sim uArch: core:  3, cta: 2 initialized @(20128,0)
GPGPU-Sim uArch: Shader 12 finished CTA #2 (20164,0), 5 CTAs running
GPGPU-Sim uArch: core: 12, cta: 2 initialized @(20165,0)
GPGPU-Sim uArch: Shader 7 finished CTA #2 (20172,0), 5 CTAs running
GPGPU-Sim uArch: core:  7, cta: 2 initialized @(20173,0)
GPGPU-Sim uArch: Shader 10 finished CTA #3 (20181,0), 5 CTAs running
GPGPU-Sim uArch: core: 10, cta: 3 initialized @(20182,0)
GPGPU-Sim uArch: Shader 8 finished CTA #2 (20187,0), 5 CTAs running
GPGPU-Sim uArch: core:  8, cta: 2 initialized @(20188,0)
GPGPU-Sim uArch: Shader 1 finished CTA #3 (20210,0), 5 CTAs running
GPGPU-Sim uArch: core:  1, cta: 3 initialized @(20211,0)
GPGPU-Sim uArch: Shader 2 finished CTA #3 (20226,0), 5 CTAs running
GPGPU-Sim uArch: core:  2, cta: 3 initialized @(20227,0)
GPGPU-Sim uArch: Shader 11 finished CTA #3 (20234,0), 5 CTAs running
GPGPU-Sim uArch: core: 11, cta: 3 initialized @(20235,0)
GPGPU-Sim uArch: Shader 14 finished CTA #3 (20235,0), 5 CTAs running
GPGPU-Sim uArch: core: 14, cta: 3 initialized @(20236,0)
GPGPU-Sim PTX: 10700000 instructions simulated : ctaid=(131,0,0) tid=(127,0,0)
GPGPU-Sim uArch: Shader 13 finished CTA #3 (20249,0), 5 CTAs running
GPGPU-Sim uArch: core: 13, cta: 3 initialized @(20250,0)
GPGPU-Sim uArch: Shader 7 finished CTA #3 (20255,0), 5 CTAs running
GPGPU-Sim uArch: core:  7, cta: 3 initialized @(20256,0)
GPGPU-Sim uArch: Shader 3 finished CTA #3 (20257,0), 5 CTAs running
GPGPU-Sim uArch: core:  3, cta: 3 initialized @(20258,0)
GPGPU-Sim uArch: Shader 4 finished CTA #3 (20281,0), 5 CTAs running
GPGPU-Sim uArch: core:  4, cta: 3 initialized @(20282,0)
GPGPU-Sim uArch: Shader 12 finished CTA #3 (20289,0), 5 CTAs running
GPGPU-Sim uArch: core: 12, cta: 3 initialized @(20290,0)
GPGPU-Sim uArch: Shader 8 finished CTA #3 (20296,0), 5 CTAs running
GPGPU-Sim uArch: core:  8, cta: 3 initialized @(20297,0)
GPGPU-Sim uArch: Shader 0 finished CTA #3 (20319,0), 5 CTAs running
GPGPU-Sim uArch: core:  0, cta: 3 initialized @(20320,0)
GPGPU-Sim uArch: Shader 1 finished CTA #4 (20379,0), 5 CTAs running
GPGPU-Sim uArch: core:  1, cta: 4 initialized @(20380,0)
GPGPU-Sim uArch: Shader 9 finished CTA #4 (20381,0), 5 CTAs running
GPGPU-Sim uArch: core:  9, cta: 4 initialized @(20382,0)
GPGPU-Sim uArch: Shader 14 finished CTA #4 (20399,0), 5 CTAs running
GPGPU-Sim uArch: core: 14, cta: 4 initialized @(20400,0)
GPGPU-Sim uArch: Shader 10 finished CTA #4 (20406,0), 5 CTAs running
GPGPU-Sim uArch: core: 10, cta: 4 initialized @(20407,0)
GPGPU-Sim PTX: 10800000 instructions simulated : ctaid=(153,0,0) tid=(255,0,0)
GPGPU-Sim uArch: Shader 5 finished CTA #4 (20450,0), 5 CTAs running
GPGPU-Sim uArch: core:  5, cta: 4 initialized @(20451,0)
GPGPU-Sim uArch: Shader 2 finished CTA #4 (20481,0), 5 CTAs running
GPGPU-Sim uArch: core:  2, cta: 4 initialized @(20482,0)
GPGPU-Sim uArch: cycles simulated: 20500  inst.: 10792192 (ipc=526.4) sim_rate=308348 (inst/sec) elapsed = 0:0:00:35 / Tue Apr 16 16:55:07 2019
GPGPU-Sim uArch: Shader 3 finished CTA #4 (20506,0), 5 CTAs running
GPGPU-Sim uArch: core:  3, cta: 4 initialized @(20507,0)
GPGPU-Sim uArch: Shader 4 finished CTA #4 (20530,0), 5 CTAs running
GPGPU-Sim uArch: core:  4, cta: 4 initialized @(20531,0)
GPGPU-Sim uArch: Shader 6 finished CTA #4 (20537,0), 5 CTAs running
GPGPU-Sim uArch: core:  6, cta: 4 initialized @(20538,0)
GPGPU-Sim uArch: Shader 7 finished CTA #4 (20566,0), 5 CTAs running
GPGPU-Sim uArch: core:  7, cta: 4 initialized @(20567,0)
GPGPU-Sim uArch: Shader 0 finished CTA #4 (20568,0), 5 CTAs running
GPGPU-Sim uArch: core:  0, cta: 4 initialized @(20569,0)
GPGPU-Sim uArch: Shader 11 finished CTA #4 (20574,0), 5 CTAs running
GPGPU-Sim uArch: core: 11, cta: 4 initialized @(20575,0)
GPGPU-Sim uArch: Shader 13 finished CTA #4 (20597,0), 5 CTAs running
GPGPU-Sim uArch: core: 13, cta: 4 initialized @(20598,0)
GPGPU-Sim uArch: Shader 8 finished CTA #4 (20605,0), 5 CTAs running
GPGPU-Sim uArch: core:  8, cta: 4 initialized @(20606,0)
GPGPU-Sim uArch: Shader 12 finished CTA #4 (20630,0), 5 CTAs running
GPGPU-Sim uArch: core: 12, cta: 4 initialized @(20631,0)
GPGPU-Sim uArch: Shader 11 finished CTA #5 (20667,0), 5 CTAs running
GPGPU-Sim uArch: core: 11, cta: 5 initialized @(20668,0)
GPGPU-Sim uArch: Shader 4 finished CTA #5 (20690,0), 5 CTAs running
GPGPU-Sim uArch: core:  4, cta: 5 initialized @(20691,0)
GPGPU-Sim uArch: Shader 6 finished CTA #5 (20718,0), 5 CTAs running
GPGPU-Sim uArch: core:  6, cta: 5 initialized @(20719,0)
GPGPU-Sim uArch: Shader 2 finished CTA #5 (20760,0), 5 CTAs running
GPGPU-Sim uArch: core:  2, cta: 5 initialized @(20761,0)
GPGPU-Sim uArch: Shader 13 finished CTA #5 (20971,0), 5 CTAs running
GPGPU-Sim uArch: core: 13, cta: 5 initialized @(20972,0)
GPGPU-Sim PTX: 10900000 instructions simulated : ctaid=(134,0,0) tid=(191,0,0)
GPGPU-Sim uArch: Shader 3 finished CTA #5 (21147,0), 5 CTAs running
GPGPU-Sim uArch: core:  3, cta: 5 initialized @(21148,0)
GPGPU-Sim PTX: 11000000 instructions simulated : ctaid=(138,0,0) tid=(63,0,0)
GPGPU-Sim uArch: Shader 12 finished CTA #5 (21227,0), 5 CTAs running
GPGPU-Sim uArch: core: 12, cta: 5 initialized @(21228,0)
GPGPU-Sim uArch: Shader 7 finished CTA #5 (21242,0), 5 CTAs running
GPGPU-Sim uArch: core:  7, cta: 5 initialized @(21243,0)
GPGPU-Sim uArch: Shader 10 finished CTA #5 (21244,0), 5 CTAs running
GPGPU-Sim uArch: core: 10, cta: 5 initialized @(21245,0)
GPGPU-Sim uArch: Shader 14 finished CTA #5 (21260,0), 5 CTAs running
GPGPU-Sim uArch: core: 14, cta: 5 initialized @(21261,0)
GPGPU-Sim uArch: Shader 0 finished CTA #5 (21263,0), 5 CTAs running
GPGPU-Sim uArch: core:  0, cta: 5 initialized @(21264,0)
GPGPU-Sim uArch: Shader 1 finished CTA #5 (21276,0), 5 CTAs running
GPGPU-Sim uArch: core:  1, cta: 5 initialized @(21277,0)
GPGPU-Sim uArch: Shader 5 finished CTA #5 (21288,0), 5 CTAs running
GPGPU-Sim uArch: core:  5, cta: 5 initialized @(21289,0)
GPGPU-Sim uArch: Shader 9 finished CTA #5 (21313,0), 5 CTAs running
GPGPU-Sim uArch: core:  9, cta: 5 initialized @(21314,0)
GPGPU-Sim uArch: Shader 8 finished CTA #5 (21320,0), 5 CTAs running
GPGPU-Sim uArch: core:  8, cta: 5 initialized @(21321,0)
GPGPU-Sim PTX: 11100000 instructions simulated : ctaid=(145,0,0) tid=(255,0,0)
GPGPU-Sim PTX: 11200000 instructions simulated : ctaid=(97,0,0) tid=(191,0,0)
GPGPU-Sim uArch: cycles simulated: 21500  inst.: 11233024 (ipc=522.5) sim_rate=303595 (inst/sec) elapsed = 0:0:00:37 / Tue Apr 16 16:55:09 2019
GPGPU-Sim PTX: 11300000 instructions simulated : ctaid=(162,0,0) tid=(95,0,0)
GPGPU-Sim PTX: 11400000 instructions simulated : ctaid=(117,0,0) tid=(255,0,0)
GPGPU-Sim PTX: 11500000 instructions simulated : ctaid=(133,0,0) tid=(159,0,0)
GPGPU-Sim PTX: 11600000 instructions simulated : ctaid=(157,0,0) tid=(127,0,0)
GPGPU-Sim uArch: cycles simulated: 22000  inst.: 11651776 (ipc=529.6) sim_rate=306625 (inst/sec) elapsed = 0:0:00:38 / Tue Apr 16 16:55:10 2019
GPGPU-Sim PTX: 11700000 instructions simulated : ctaid=(100,0,0) tid=(95,0,0)
GPGPU-Sim PTX: 11800000 instructions simulated : ctaid=(92,0,0) tid=(95,0,0)
GPGPU-Sim PTX: 11900000 instructions simulated : ctaid=(103,0,0) tid=(63,0,0)
GPGPU-Sim PTX: 12000000 instructions simulated : ctaid=(109,0,0) tid=(127,0,0)
GPGPU-Sim PTX: 12100000 instructions simulated : ctaid=(130,0,0) tid=(31,0,0)
GPGPU-Sim uArch: cycles simulated: 22500  inst.: 12093248 (ipc=537.5) sim_rate=310083 (inst/sec) elapsed = 0:0:00:39 / Tue Apr 16 16:55:11 2019
GPGPU-Sim PTX: 12200000 instructions simulated : ctaid=(98,0,0) tid=(223,0,0)
GPGPU-Sim PTX: 12300000 instructions simulated : ctaid=(104,0,0) tid=(31,0,0)
GPGPU-Sim PTX: 12400000 instructions simulated : ctaid=(155,0,0) tid=(255,0,0)
GPGPU-Sim PTX: 12500000 instructions simulated : ctaid=(95,0,0) tid=(31,0,0)
GPGPU-Sim uArch: cycles simulated: 23000  inst.: 12533184 (ipc=544.9) sim_rate=313329 (inst/sec) elapsed = 0:0:00:40 / Tue Apr 16 16:55:12 2019
GPGPU-Sim PTX: 12600000 instructions simulated : ctaid=(140,0,0) tid=(95,0,0)
GPGPU-Sim PTX: 12700000 instructions simulated : ctaid=(152,0,0) tid=(223,0,0)
GPGPU-Sim PTX: 12800000 instructions simulated : ctaid=(116,0,0) tid=(159,0,0)
GPGPU-Sim PTX: 12900000 instructions simulated : ctaid=(91,0,0) tid=(127,0,0)
GPGPU-Sim uArch: cycles simulated: 23500  inst.: 12955328 (ipc=551.3) sim_rate=315983 (inst/sec) elapsed = 0:0:00:41 / Tue Apr 16 16:55:13 2019
GPGPU-Sim PTX: 13000000 instructions simulated : ctaid=(108,0,0) tid=(31,0,0)
GPGPU-Sim PTX: 13100000 instructions simulated : ctaid=(116,0,0) tid=(191,0,0)
GPGPU-Sim PTX: 13200000 instructions simulated : ctaid=(125,0,0) tid=(127,0,0)
GPGPU-Sim PTX: 13300000 instructions simulated : ctaid=(137,0,0) tid=(159,0,0)
GPGPU-Sim uArch: cycles simulated: 24000  inst.: 13377216 (ipc=557.4) sim_rate=318505 (inst/sec) elapsed = 0:0:00:42 / Tue Apr 16 16:55:14 2019
GPGPU-Sim PTX: 13400000 instructions simulated : ctaid=(101,0,0) tid=(95,0,0)
GPGPU-Sim PTX: 13500000 instructions simulated : ctaid=(154,0,0) tid=(127,0,0)
GPGPU-Sim PTX: 13600000 instructions simulated : ctaid=(139,0,0) tid=(191,0,0)
GPGPU-Sim PTX: 13700000 instructions simulated : ctaid=(92,0,0) tid=(31,0,0)
GPGPU-Sim uArch: cycles simulated: 24500  inst.: 13790752 (ipc=562.9) sim_rate=320715 (inst/sec) elapsed = 0:0:00:43 / Tue Apr 16 16:55:15 2019
GPGPU-Sim PTX: 13800000 instructions simulated : ctaid=(140,0,0) tid=(255,0,0)
GPGPU-Sim PTX: 13900000 instructions simulated : ctaid=(147,0,0) tid=(31,0,0)
GPGPU-Sim PTX: 14000000 instructions simulated : ctaid=(154,0,0) tid=(31,0,0)
GPGPU-Sim PTX: 14100000 instructions simulated : ctaid=(131,0,0) tid=(223,0,0)
GPGPU-Sim PTX: 14200000 instructions simulated : ctaid=(133,0,0) tid=(223,0,0)
GPGPU-Sim uArch: cycles simulated: 25000  inst.: 14193568 (ipc=567.7) sim_rate=315412 (inst/sec) elapsed = 0:0:00:45 / Tue Apr 16 16:55:17 2019
GPGPU-Sim PTX: 14300000 instructions simulated : ctaid=(106,0,0) tid=(31,0,0)
GPGPU-Sim PTX: 14400000 instructions simulated : ctaid=(110,0,0) tid=(159,0,0)
GPGPU-Sim PTX: 14500000 instructions simulated : ctaid=(139,0,0) tid=(255,0,0)
GPGPU-Sim PTX: 14600000 instructions simulated : ctaid=(135,0,0) tid=(223,0,0)
GPGPU-Sim uArch: cycles simulated: 25500  inst.: 14595072 (ipc=572.4) sim_rate=317284 (inst/sec) elapsed = 0:0:00:46 / Tue Apr 16 16:55:18 2019
GPGPU-Sim PTX: 14700000 instructions simulated : ctaid=(151,0,0) tid=(223,0,0)
GPGPU-Sim PTX: 14800000 instructions simulated : ctaid=(122,0,0) tid=(255,0,0)
GPGPU-Sim PTX: 14900000 instructions simulated : ctaid=(119,0,0) tid=(159,0,0)
GPGPU-Sim PTX: 15000000 instructions simulated : ctaid=(95,0,0) tid=(255,0,0)
GPGPU-Sim uArch: cycles simulated: 26000  inst.: 14998304 (ipc=576.9) sim_rate=319112 (inst/sec) elapsed = 0:0:00:47 / Tue Apr 16 16:55:19 2019
GPGPU-Sim PTX: 15100000 instructions simulated : ctaid=(107,0,0) tid=(31,0,0)
GPGPU-Sim PTX: 15200000 instructions simulated : ctaid=(121,0,0) tid=(31,0,0)
GPGPU-Sim PTX: 15300000 instructions simulated : ctaid=(111,0,0) tid=(223,0,0)
GPGPU-Sim PTX: 15400000 instructions simulated : ctaid=(102,0,0) tid=(191,0,0)
GPGPU-Sim uArch: cycles simulated: 26500  inst.: 15395680 (ipc=581.0) sim_rate=320743 (inst/sec) elapsed = 0:0:00:48 / Tue Apr 16 16:55:20 2019
GPGPU-Sim PTX: 15500000 instructions simulated : ctaid=(132,0,0) tid=(223,0,0)
GPGPU-Sim PTX: 15600000 instructions simulated : ctaid=(99,0,0) tid=(127,0,0)
GPGPU-Sim PTX: 15700000 instructions simulated : ctaid=(132,0,0) tid=(159,0,0)
GPGPU-Sim PTX: 15800000 instructions simulated : ctaid=(144,0,0) tid=(223,0,0)
GPGPU-Sim uArch: cycles simulated: 27000  inst.: 15796032 (ipc=585.0) sim_rate=322368 (inst/sec) elapsed = 0:0:00:49 / Tue Apr 16 16:55:21 2019
GPGPU-Sim PTX: 15900000 instructions simulated : ctaid=(92,0,0) tid=(255,0,0)
GPGPU-Sim PTX: 16000000 instructions simulated : ctaid=(95,0,0) tid=(95,0,0)
GPGPU-Sim PTX: 16100000 instructions simulated : ctaid=(105,0,0) tid=(31,0,0)
GPGPU-Sim PTX: 16200000 instructions simulated : ctaid=(92,0,0) tid=(255,0,0)
GPGPU-Sim uArch: cycles simulated: 27500  inst.: 16194208 (ipc=588.9) sim_rate=323884 (inst/sec) elapsed = 0:0:00:50 / Tue Apr 16 16:55:22 2019
GPGPU-Sim PTX: 16300000 instructions simulated : ctaid=(118,0,0) tid=(255,0,0)
GPGPU-Sim PTX: 16400000 instructions simulated : ctaid=(97,0,0) tid=(223,0,0)
GPGPU-Sim PTX: 16500000 instructions simulated : ctaid=(92,0,0) tid=(255,0,0)
GPGPU-Sim PTX: 16600000 instructions simulated : ctaid=(122,0,0) tid=(95,0,0)
GPGPU-Sim uArch: cycles simulated: 28000  inst.: 16593664 (ipc=592.6) sim_rate=325365 (inst/sec) elapsed = 0:0:00:51 / Tue Apr 16 16:55:23 2019
GPGPU-Sim PTX: 16700000 instructions simulated : ctaid=(136,0,0) tid=(31,0,0)
GPGPU-Sim PTX: 16800000 instructions simulated : ctaid=(116,0,0) tid=(95,0,0)
GPGPU-Sim PTX: 16900000 instructions simulated : ctaid=(106,0,0) tid=(223,0,0)
GPGPU-Sim PTX: 17000000 instructions simulated : ctaid=(108,0,0) tid=(191,0,0)
GPGPU-Sim uArch: cycles simulated: 28500  inst.: 17001120 (ipc=596.5) sim_rate=326944 (inst/sec) elapsed = 0:0:00:52 / Tue Apr 16 16:55:24 2019
GPGPU-Sim PTX: 17100000 instructions simulated : ctaid=(95,0,0) tid=(63,0,0)
GPGPU-Sim PTX: 17200000 instructions simulated : ctaid=(118,0,0) tid=(63,0,0)
GPGPU-Sim PTX: 17300000 instructions simulated : ctaid=(135,0,0) tid=(95,0,0)
GPGPU-Sim PTX: 17400000 instructions simulated : ctaid=(101,0,0) tid=(223,0,0)
GPGPU-Sim uArch: cycles simulated: 29000  inst.: 17403232 (ipc=600.1) sim_rate=328362 (inst/sec) elapsed = 0:0:00:53 / Tue Apr 16 16:55:25 2019
GPGPU-Sim PTX: 17500000 instructions simulated : ctaid=(134,0,0) tid=(223,0,0)
GPGPU-Sim PTX: 17600000 instructions simulated : ctaid=(122,0,0) tid=(191,0,0)
GPGPU-Sim uArch: Shader 10 finished CTA #0 (29376,0), 5 CTAs running
GPGPU-Sim uArch: core: 10, cta: 0 initialized @(29377,0)
GPGPU-Sim uArch: Shader 13 finished CTA #0 (29391,0), 5 CTAs running
GPGPU-Sim uArch: core: 13, cta: 0 initialized @(29392,0)
GPGPU-Sim PTX: 17700000 instructions simulated : ctaid=(163,0,0) tid=(191,0,0)
GPGPU-Sim uArch: Shader 11 finished CTA #0 (29429,0), 5 CTAs running
GPGPU-Sim uArch: core: 11, cta: 0 initialized @(29430,0)
GPGPU-Sim uArch: Shader 10 finished CTA #1 (29447,0), 5 CTAs running
GPGPU-Sim uArch: core: 10, cta: 1 initialized @(29448,0)
GPGPU-Sim uArch: Shader 9 finished CTA #0 (29473,0), 5 CTAs running
GPGPU-Sim uArch: core:  9, cta: 0 initialized @(29474,0)
GPGPU-Sim uArch: cycles simulated: 29500  inst.: 17756768 (ipc=601.9) sim_rate=322850 (inst/sec) elapsed = 0:0:00:55 / Tue Apr 16 16:55:27 2019
GPGPU-Sim uArch: Shader 13 finished CTA #1 (29514,0), 5 CTAs running
GPGPU-Sim uArch: core: 13, cta: 1 initialized @(29515,0)
GPGPU-Sim uArch: Shader 7 finished CTA #0 (29542,0), 5 CTAs running
GPGPU-Sim uArch: core:  7, cta: 0 initialized @(29543,0)
GPGPU-Sim PTX: 17800000 instructions simulated : ctaid=(159,0,0) tid=(255,0,0)
GPGPU-Sim uArch: Shader 8 finished CTA #0 (29574,0), 5 CTAs running
GPGPU-Sim uArch: core:  8, cta: 0 initialized @(29575,0)
GPGPU-Sim uArch: Shader 3 finished CTA #0 (29579,0), 5 CTAs running
GPGPU-Sim uArch: core:  3, cta: 0 initialized @(29580,0)
GPGPU-Sim uArch: Shader 11 finished CTA #1 (29598,0), 5 CTAs running
GPGPU-Sim uArch: core: 11, cta: 1 initialized @(29599,0)
GPGPU-Sim uArch: Shader 9 finished CTA #1 (29608,0), 5 CTAs running
GPGPU-Sim uArch: core:  9, cta: 1 initialized @(29609,0)
GPGPU-Sim uArch: Shader 13 finished CTA #2 (29635,0), 5 CTAs running
GPGPU-Sim uArch: core: 13, cta: 2 initialized @(29636,0)
GPGPU-Sim uArch: Shader 7 finished CTA #1 (29643,0), 5 CTAs running
GPGPU-Sim uArch: core:  7, cta: 1 initialized @(29644,0)
GPGPU-Sim uArch: Shader 8 finished CTA #1 (29647,0), 5 CTAs running
GPGPU-Sim uArch: core:  8, cta: 1 initialized @(29648,0)
GPGPU-Sim uArch: Shader 0 finished CTA #0 (29664,0), 5 CTAs running
GPGPU-Sim uArch: core:  0, cta: 0 initialized @(29665,0)
GPGPU-Sim uArch: Shader 10 finished CTA #2 (29678,0), 5 CTAs running
GPGPU-Sim uArch: core: 10, cta: 2 initialized @(29679,0)
GPGPU-Sim uArch: Shader 9 finished CTA #2 (29708,0), 5 CTAs running
GPGPU-Sim uArch: core:  9, cta: 2 initialized @(29709,0)
GPGPU-Sim PTX: 17900000 instructions simulated : ctaid=(140,0,0) tid=(159,0,0)
GPGPU-Sim uArch: Shader 11 finished CTA #2 (29734,0), 5 CTAs running
GPGPU-Sim uArch: core: 11, cta: 2 initialized @(29735,0)
GPGPU-Sim uArch: Shader 3 finished CTA #1 (29743,0), 5 CTAs running
GPGPU-Sim uArch: core:  3, cta: 1 initialized @(29744,0)
GPGPU-Sim uArch: Shader 0 finished CTA #1 (29805,0), 5 CTAs running
GPGPU-Sim uArch: core:  0, cta: 1 initialized @(29806,0)
GPGPU-Sim uArch: Shader 8 finished CTA #2 (29812,0), 5 CTAs running
GPGPU-Sim uArch: core:  8, cta: 2 initialized @(29813,0)
GPGPU-Sim uArch: Shader 3 finished CTA #2 (29831,0), 5 CTAs running
GPGPU-Sim uArch: core:  3, cta: 2 initialized @(29832,0)
GPGPU-Sim PTX: 18000000 instructions simulated : ctaid=(173,0,0) tid=(191,0,0)
GPGPU-Sim uArch: Shader 7 finished CTA #2 (29855,0), 5 CTAs running
GPGPU-Sim uArch: core:  7, cta: 2 initialized @(29856,0)
GPGPU-Sim uArch: Shader 14 finished CTA #0 (29865,0), 5 CTAs running
GPGPU-Sim uArch: core: 14, cta: 0 initialized @(29866,0)
GPGPU-Sim uArch: Shader 0 finished CTA #2 (29912,0), 5 CTAs running
GPGPU-Sim uArch: core:  0, cta: 2 initialized @(29913,0)
GPGPU-Sim uArch: Shader 12 finished CTA #0 (29916,0), 5 CTAs running
GPGPU-Sim uArch: core: 12, cta: 0 initialized @(29917,0)
GPGPU-Sim uArch: Shader 4 finished CTA #0 (29923,0), 5 CTAs running
GPGPU-Sim uArch: core:  4, cta: 0 initialized @(29924,0)
GPGPU-Sim uArch: Shader 1 finished CTA #0 (29952,0), 5 CTAs running
GPGPU-Sim uArch: core:  1, cta: 0 initialized @(29953,0)
GPGPU-Sim uArch: Shader 14 finished CTA #1 (29967,0), 5 CTAs running
GPGPU-Sim uArch: core: 14, cta: 1 initialized @(29968,0)
GPGPU-Sim uArch: Shader 4 finished CTA #1 (29974,0), 5 CTAs running
GPGPU-Sim uArch: core:  4, cta: 1 initialized @(29975,0)
GPGPU-Sim PTX: 18100000 instructions simulated : ctaid=(168,0,0) tid=(191,0,0)
GPGPU-Sim uArch: cycles simulated: 30000  inst.: 18103904 (ipc=603.5) sim_rate=323284 (inst/sec) elapsed = 0:0:00:56 / Tue Apr 16 16:55:28 2019
GPGPU-Sim uArch: Shader 12 finished CTA #1 (30017,0), 5 CTAs running
GPGPU-Sim uArch: Shader 12 finished CTA #2 (30017,0), 4 CTAs running
GPGPU-Sim uArch: core: 12, cta: 1 initialized @(30018,0)
GPGPU-Sim uArch: core: 12, cta: 2 initialized @(30019,0)
GPGPU-Sim uArch: Shader 2 finished CTA #0 (30033,0), 5 CTAs running
GPGPU-Sim uArch: core:  2, cta: 0 initialized @(30034,0)
GPGPU-Sim uArch: Shader 4 finished CTA #2 (30046,0), 5 CTAs running
GPGPU-Sim uArch: core:  4, cta: 2 initialized @(30047,0)
GPGPU-Sim uArch: Shader 6 finished CTA #0 (30074,0), 5 CTAs running
GPGPU-Sim uArch: core:  6, cta: 0 initialized @(30075,0)
GPGPU-Sim uArch: Shader 6 finished CTA #1 (30083,0), 5 CTAs running
GPGPU-Sim uArch: core:  6, cta: 1 initialized @(30084,0)
GPGPU-Sim uArch: Shader 2 finished CTA #1 (30103,0), 5 CTAs running
GPGPU-Sim uArch: core:  2, cta: 1 initialized @(30104,0)
GPGPU-Sim PTX: 18200000 instructions simulated : ctaid=(124,0,0) tid=(127,0,0)
GPGPU-Sim uArch: Shader 1 finished CTA #1 (30141,0), 5 CTAs running
GPGPU-Sim uArch: core:  1, cta: 1 initialized @(30142,0)
GPGPU-Sim uArch: Shader 14 finished CTA #2 (30172,0), 5 CTAs running
GPGPU-Sim uArch: core: 14, cta: 2 initialized @(30173,0)
GPGPU-Sim uArch: Shader 5 finished CTA #0 (30188,0), 5 CTAs running
GPGPU-Sim uArch: core:  5, cta: 0 initialized @(30189,0)
GPGPU-Sim uArch: Shader 6 finished CTA #2 (30249,0), 5 CTAs running
GPGPU-Sim uArch: core:  6, cta: 2 initialized @(30250,0)
GPGPU-Sim PTX: 18300000 instructions simulated : ctaid=(164,0,0) tid=(63,0,0)
GPGPU-Sim uArch: Shader 5 finished CTA #1 (30288,0), 5 CTAs running
GPGPU-Sim uArch: core:  5, cta: 1 initialized @(30289,0)
GPGPU-Sim uArch: Shader 1 finished CTA #2 (30359,0), 5 CTAs running
GPGPU-Sim uArch: core:  1, cta: 2 initialized @(30360,0)
GPGPU-Sim uArch: Shader 5 finished CTA #2 (30384,0), 5 CTAs running
GPGPU-Sim uArch: core:  5, cta: 2 initialized @(30385,0)
GPGPU-Sim PTX: 18400000 instructions simulated : ctaid=(130,0,0) tid=(63,0,0)
GPGPU-Sim uArch: Shader 2 finished CTA #2 (30415,0), 5 CTAs running
GPGPU-Sim uArch: core:  2, cta: 2 initialized @(30416,0)
GPGPU-Sim uArch: cycles simulated: 30500  inst.: 18469920 (ipc=605.6) sim_rate=318446 (inst/sec) elapsed = 0:0:00:58 / Tue Apr 16 16:55:30 2019
GPGPU-Sim PTX: 18500000 instructions simulated : ctaid=(220,0,0) tid=(255,0,0)
GPGPU-Sim PTX: 18600000 instructions simulated : ctaid=(224,0,0) tid=(191,0,0)
GPGPU-Sim PTX: 18700000 instructions simulated : ctaid=(124,0,0) tid=(31,0,0)
GPGPU-Sim PTX: 18800000 instructions simulated : ctaid=(220,0,0) tid=(63,0,0)
GPGPU-Sim uArch: cycles simulated: 31000  inst.: 18831904 (ipc=607.5) sim_rate=319184 (inst/sec) elapsed = 0:0:00:59 / Tue Apr 16 16:55:31 2019
GPGPU-Sim PTX: 18900000 instructions simulated : ctaid=(176,0,0) tid=(255,0,0)
GPGPU-Sim PTX: 19000000 instructions simulated : ctaid=(184,0,0) tid=(95,0,0)
GPGPU-Sim uArch: Shader 1 finished CTA #3 (31282,0), 5 CTAs running
GPGPU-Sim uArch: core:  1, cta: 3 initialized @(31283,0)
GPGPU-Sim PTX: 19100000 instructions simulated : ctaid=(222,0,0) tid=(127,0,0)
GPGPU-Sim PTX: 19200000 instructions simulated : ctaid=(164,0,0) tid=(31,0,0)
GPGPU-Sim uArch: cycles simulated: 31500  inst.: 19221664 (ipc=610.2) sim_rate=320361 (inst/sec) elapsed = 0:0:01:00 / Tue Apr 16 16:55:32 2019
GPGPU-Sim PTX: 19300000 instructions simulated : ctaid=(146,0,0) tid=(255,0,0)
GPGPU-Sim PTX: 19400000 instructions simulated : ctaid=(156,0,0) tid=(95,0,0)
GPGPU-Sim PTX: 19500000 instructions simulated : ctaid=(187,0,0) tid=(223,0,0)
GPGPU-Sim PTX: 19600000 instructions simulated : ctaid=(217,0,0) tid=(127,0,0)
[...]
traffic_breakdown_memtocore[GLOBAL_ACC_W] = 16448 {8:2056,}
traffic_breakdown_memtocore[INST_ACC_R] = 411944 {136:3029,}
traffic_breakdown_memtocore[TEXTURE_ACC_R] = 4080 {136:30,}
maxmrqlatency = 525 
maxdqlatency = 0 
maxmflatency = 1331 
averagemflatency = 380 
max_icnt2mem_latency = 491 
max_icnt2sh_latency = 48039 
mrq_lat_table:2296 	636 	297 	418 	444 	349 	942 	764 	84 	3 	0 	0 	0 	0 	0 	0 	0 	0 	0 	0 	0 	0 	0 	0 	0 	0 	0 	0 	0 	0 	0 	0 	
dq_lat_table:0 	0 	0 	0 	0 	0 	0 	0 	0 	0 	0 	0 	0 	0 	0 	0 	0 	0 	0 	0 	0 	0 	0 	0 	0 	0 	0 	0 	0 	0 	0 	0 	
mf_lat_table:0 	0 	0 	0 	3 	2 	17 	986 	3030 	862 	232 	0 	0 	0 	0 	0 	0 	0 	0 	0 	0 	0 	0 	0 	0 	0 	0 	0 	0 	0 	0 	0 	
icnt2mem_lat_table:0 	0 	0 	5503 	1322 	1108 	158 	7 	63 	0 	0 	0 	0 	0 	0 	0 	0 	0 	0 	0 	0 	0 	0 	0 	
icnt2sh_lat_table:0 	0 	0 	1464 	1005 	525 	82 	0 	0 	0 	0 	0 	0 	0 	1125 	931 	0 	0 	0 	0 	0 	0 	0 	0 	
mf_lat_pw_table:0 	0 	0 	0 	0 	0 	1 	12 	48 	3 	1 	0 	0 	0 	0 	0 	0 	0 	0 	0 	0 	0 	0 	0 	0 	0 	0 	0 	0 	0 	0 	0 	
maximum concurrent accesses to same row:
dram[0]:         2         2         0         0        10        10        32        32        32        32        32        32         0         0         0         0 
dram[1]:         2         2         0         0        10        10        32        32        32        32        32        32         0         0         0         0 
dram[2]:         4         2         0         0        10        12        32        32        32        32        32        32         0         0         0         0 
dram[3]:         4         2         0         0        10        12        32        32        32        32        32        32         0         0         0         0 
dram[4]:         4         2         0         0        10        12        32        32        32        32        32        32         0         0         0         0 
dram[5]:         3         2         0         0        10        12        32        32        32        32        32        32         0         0         0         0 
maximum service time to same row:
dram[0]:     13300     11403     19879     19879     27942     27956     30833     31400     38830     38554     24289     23909     21160     21112     30679     30710 
dram[1]:     10541     12319     19868     19939     27946     27959     31375     31405     38778     38556     24190     23934     21354     21110     30684     30662 
dram[2]:     11486     13224     19841     19946     27946     27981     31379     31400     38778     38584     24180     23938     21363     21232     30652     30779 
dram[3]:     10534     14109     19914     19772     27946     27964     31391     30820     38797     38828     24163     24604     21144     21240     30694     30784 
dram[4]:      6960     15027     19893     19782     28002     27969     31421     30825     38805     38837     24152     24607     21091     21246     30697     30785 
dram[5]:     10566     15938     19882     19857     27951     27972     31382     30847     38550     38840     23904     24592     21113     21252     30704     30788 
average row accesses per activate:
dram[0]: 11.500000 34.000000 64.000000 64.000000 37.000000 37.000000 48.000000 48.000000 48.000000 48.000000 30.000000 28.000000 32.000000 32.000000 32.000000 32.000000 
dram[1]: 11.666667 34.000000 64.000000 64.000000 37.000000 37.000000 48.000000 48.000000 48.000000 48.000000 28.000000 28.000000 32.000000 32.000000 32.000000 32.000000 
dram[2]: 34.500000 34.000000 64.000000 64.000000 37.000000 38.000000 48.000000 48.000000 48.000000 48.000000 28.000000 28.000000 32.000000 32.000000 32.000000 32.000000 
dram[3]: 34.000000 34.000000 64.000000 64.000000 37.000000 38.000000 48.000000 48.000000 48.000000 48.000000 28.000000 28.000000 32.000000 32.000000 32.000000 32.000000 
dram[4]: 22.666666 34.000000 64.000000 64.000000 37.000000 38.000000 48.000000 48.000000 48.000000 48.000000 28.000000 28.000000 32.000000 32.000000 32.000000 32.000000 
dram[5]: 34.500000 34.000000 64.000000 64.000000 37.000000 38.000000 48.000000 48.000000 48.000000 48.000000 28.000000 28.000000 32.000000 32.000000 32.000000 32.000000 
average row locality = 6233/165 = 37.775757
number of total memory accesses made:
dram[0]:         0         0         0         0         0         0         0         0         0         0         0         0         0         0         0         0 
dram[1]:         0         0         0         0         0         0         0         0         0         0         0         0         0         0         0         0 
dram[2]:         0         0         0         0         0         0         0         0         0         0         0         0         0         0         0         0 
dram[3]:         0         0         0         0         0         0         0         0         0         0         0         0         0         0         0         0 
dram[4]:         0         0         0         0         0         0         0         0         0         0         0         0         0         0         0         0 
dram[5]:         0         0         0         0         0         0         0         0         0         0         0         0         0         0         0         0 
total accesses: 0
min_bank_accesses = 0!
min_chip_accesses = 0!
number of total read accesses:
dram[0]:        39        36        32        32        42        42        64        64        64        64        46        44        32        32        32        32 
dram[1]:        40        36        32        32        42        42        64        64        64        64        44        44        32        32        32        32 
dram[2]:        39        36        32        32        42        44        64        64        64        64        44        44        32        32        32        32 
dram[3]:        38        36        32        32        42        44        64        64        64        64        44        44        32        32        32        32 
dram[4]:        38        36        32        32        42        44        64        64        64        64        44        44        32        32        32        32 
dram[5]:        37        36        32        32        42        44        64        64        64        64        44        44        32        32        32        32 
total reads: 4177
bank skew: 64/32 = 2.00
chip skew: 697/695 = 1.00
number of total write accesses:
dram[0]:        30        32        32        32        32        32        32        32        32        32        14        12         0         0         0         0 
dram[1]:        30        32        32        32        32        32        32        32        32        32        12        12         0         0         0         0 
dram[2]:        30        32        32        32        32        32        32        32        32        32        12        12         0         0         0         0 
dram[3]:        30        32        32        32        32        32        32        32        32        32        12        12         0         0         0         0 
dram[4]:        30        32        32        32        32        32        32        32        32        32        12        12         0         0         0         0 
dram[5]:        32        32        32        32        32        32        32        32        32        32        12        12         0         0         0         0 
total reads: 2056
min_bank_accesses = 0!
chip skew: 344/342 = 1.01
average mf latency per bank:
dram[0]:        481       435       521       454       212       199       235       229       248       230       329       326       270       278       269       285
dram[1]:        560       443       490       476       199       216       242       236       249       229       339       311       273       275       272       281
dram[2]:        599       448       469       488       204       222       241       233       253       258       319       363       274       286       273       263
dram[3]:        576       445       508       449       197       191       225       219       245       243       314       345       263       282       275       266
dram[4]:        590       451       516       456       188       200       225       244       236       258       337       360       278       281       290       268
dram[5]:        484       450       456       482       212       203       241       232       236       263       332       373       288       275       283       268
maximum mf latency per bank:
dram[0]:       1094      1088      1313      1292       518       491       592       533       749       650       771       734       339       357       338       381
dram[1]:       1064      1096      1266      1328       488       579       603       573       705       597       761       679       331       356       349       375
dram[2]:       1062      1130      1244      1331       592       566       620       593       678       732       709       801       316       345       360       316
dram[3]:       1113      1136      1304      1254       506       444       541       556       683       683       719       756       298       349       345       321
dram[4]:       1071      1132      1303      1258       437       454       515       621       673       743       756       791       363       353       390       331
dram[5]:       1101      1129      1293      1294       536       486       571       598       688       718       765       795       359       334       376       341

Number of Memory Banks Accessed per Memory Operation per Warp (from 0):
0	0	0	0	0	0	0	0	0	0	0	0	0	0	0	0	0	0	0	0	0	0	0	0	0	0	0	0	0	0	0	0	0	0	0	0	0	0	0	0	0	0	0	0	0	0	0	0	0	0	0	0	0	0	0	0	0	0	0	0	0	0	0	0	0	0	0	0	0	0	0	0	0	0	0	0	0	0	0	0	0	0	0	0	0	0	0	0	0	0	0	0	0	0	0	0	
Average # of Memory Banks Accessed per Memory Operation per Warp=-nan

position of mrq chosen
0	0	0	0	0	0	0	0	0	0	0	0	0	0	0	0	

average position of mrq chosen = -nan
Memory Partition 0: 
Cache L2_bank_000:
MSHR contents

Cache L2_bank_001:
MSHR contents

In Dram Latency Queue (total = 0): 
DRAM[0]: 16 bks, busW=4 BL=8 CL=12, tRRD=2 tCCD=6, tRCD=12 tRAS=28 tRP=12 tRC=40
n_cmd=63412 n_nop=61284 n_act=31 n_pre=15 n_req=1041 n_rd=1394 n_write=688 bw_util=0.06567
n_activity=11539 dram_eff=0.3609
bk0: 78a 61898i bk1: 72a 61924i bk2: 64a 61620i bk3: 64a 61555i bk4: 84a 62031i bk5: 84a 61898i bk6: 128a 62379i bk7: 128a 62257i bk8: 128a 62308i bk9: 128a 62220i bk10: 92a 62756i bk11: 88a 62640i bk12: 64a 63167i bk13: 64a 63140i bk14: 64a 63229i bk15: 64a 63242i 
dram_util_bins: 0 0 0 0 0 0 0 0 0 0
dram_eff_bins: 0 0 0 0 0 0 0 0 0 0
mrqq: max=16 avg=0.993976
Memory Partition 1: 
Cache L2_bank_002:
MSHR contents

Cache L2_bank_003:
MSHR contents

In Dram Latency Queue (total = 0): 
DRAM[1]: 16 bks, busW=4 BL=8 CL=12, tRRD=2 tCCD=6, tRCD=12 tRAS=28 tRP=12 tRC=40
n_cmd=63412 n_nop=61288 n_act=32 n_pre=16 n_req=1038 n_rd=1392 n_write=684 bw_util=0.06548
n_activity=11396 dram_eff=0.3643
bk0: 80a 61855i bk1: 72a 61926i bk2: 64a 61524i bk3: 64a 61535i bk4: 84a 61973i bk5: 84a 61843i bk6: 128a 62249i bk7: 128a 62253i bk8: 128a 62284i bk9: 128a 62264i bk10: 88a 62771i bk11: 88a 62659i bk12: 64a 63205i bk13: 64a 63145i bk14: 64a 63249i bk15: 64a 63234i 
dram_util_bins: 0 0 0 0 0 0 0 0 0 0
dram_eff_bins: 0 0 0 0 0 0 0 0 0 0
mrqq: max=16 avg=0.995048
Memory Partition 2: 
Cache L2_bank_004:
MSHR contents
MSHR: tag=0x8007fe80, atomic=0 1 entries : 0x7fba8da57e10 :  mf: uid=684651, sid10:w43, part=2, addr=0x8007fe80, load , size=128, unknown  status = IN_PARTITION_DRAM (48031), 

Cache L2_bank_005:
MSHR contents

In Dram Latency Queue (total = 0): 
DRAM[2]: 16 bks, busW=4 BL=8 CL=12, tRRD=2 tCCD=6, tRCD=12 tRAS=28 tRP=12 tRC=40
n_cmd=63412 n_nop=61294 n_act=28 n_pre=12 n_req=1039 n_rd=1394 n_write=684 bw_util=0.06554
n_activity=11305 dram_eff=0.3676
bk0: 78a 61947i bk1: 72a 61887i bk2: 64a 61548i bk3: 64a 61549i bk4: 84a 61977i bk5: 88a 61885i bk6: 128a 62344i bk7: 128a 62122i bk8: 128a 62349i bk9: 128a 62181i bk10: 88a 62833i bk11: 88a 62719i bk12: 64a 63190i bk13: 64a 63132i bk14: 64a 63238i bk15: 64a 63255i 
dram_util_bins: 0 0 0 0 0 0 0 0 0 0
dram_eff_bins: 0 0 0 0 0 0 0 0 0 0
mrqq: max=16 avg=0.992052
Memory Partition 3: 
Cache L2_bank_006:
MSHR contents
MSHR: tag=0x8007ff80, atomic=0 1 entries : 0x7fba8da58060 :  mf: uid=684652, sid10:w45, part=3, addr=0x8007ff80, load , size=128, unknown  status = IN_PARTITION_DRAM (48037), 

Cache L2_bank_007:
MSHR contents

In Dram Latency Queue (total = 0): 
DRAM[3]: 16 bks, busW=4 BL=8 CL=12, tRRD=2 tCCD=6, tRCD=12 tRAS=28 tRP=12 tRC=40
n_cmd=63412 n_nop=61296 n_act=28 n_pre=12 n_req=1038 n_rd=1392 n_write=684 bw_util=0.06548
n_activity=11496 dram_eff=0.3612
bk0: 76a 61926i bk1: 72a 61881i bk2: 64a 61606i bk3: 64a 61575i bk4: 84a 62050i bk5: 88a 62100i bk6: 128a 62308i bk7: 128a 62231i bk8: 128a 62290i bk9: 128a 62185i bk10: 88a 62831i bk11: 88a 62683i bk12: 64a 63238i bk13: 64a 63208i bk14: 64a 63231i bk15: 64a 63235i 
dram_util_bins: 0 0 0 0 0 0 0 0 0 0
dram_eff_bins: 0 0 0 0 0 0 0 0 0 0
mrqq: max=16 avg=0.921214
Memory Partition 4: 
Cache L2_bank_008:
MSHR contents
MSHR: tag=0x80080000, atomic=0 1 entries : 0x7fba8da579d0 :  mf: uid=684649, sid10:w46, part=4, addr=0x80080000, load , size=128, unknown  status = IN_PARTITION_DRAM (48035), 

Cache L2_bank_009:
MSHR contents

In Dram Latency Queue (total = 0): 
DRAM[4]: 16 bks, busW=4 BL=8 CL=12, tRRD=2 tCCD=6, tRCD=12 tRAS=28 tRP=12 tRC=40
n_cmd=63412 n_nop=61294 n_act=29 n_pre=13 n_req=1038 n_rd=1392 n_write=684 bw_util=0.06548
n_activity=11463 dram_eff=0.3622
bk0: 76a 61941i bk1: 72a 61887i bk2: 64a 61523i bk3: 64a 61545i bk4: 84a 62071i bk5: 88a 62112i bk6: 128a 62349i bk7: 128a 62216i bk8: 128a 62304i bk9: 128a 62261i bk10: 88a 62753i bk11: 88a 62680i bk12: 64a 63237i bk13: 64a 63193i bk14: 64a 63230i bk15: 64a 63206i 
dram_util_bins: 0 0 0 0 0 0 0 0 0 0
dram_eff_bins: 0 0 0 0 0 0 0 0 0 0
mrqq: max=16 avg=0.943575
Memory Partition 5: 
Cache L2_bank_010:
MSHR contents

Cache L2_bank_011:
MSHR contents

In Dram Latency Queue (total = 0): 
DRAM[5]: 16 bks, busW=4 BL=8 CL=12, tRRD=2 tCCD=6, tRCD=12 tRAS=28 tRP=12 tRC=40
n_cmd=63412 n_nop=61294 n_act=28 n_pre=12 n_req=1039 n_rd=1390 n_write=688 bw_util=0.06554
n_activity=11330 dram_eff=0.3668
bk0: 74a 61941i bk1: 72a 61890i bk2: 64a 61489i bk3: 64a 61588i bk4: 84a 61911i bk5: 88a 62007i bk6: 128a 62258i bk7: 128a 62271i bk8: 128a 62292i bk9: 128a 62209i bk10: 88a 62817i bk11: 88a 62670i bk12: 64a 63223i bk13: 64a 63248i bk14: 64a 63225i bk15: 64a 63181i 
dram_util_bins: 0 0 0 0 0 0 0 0 0 0
dram_eff_bins: 0 0 0 0 0 0 0 0 0 0
mrqq: max=16 avg=0.996925

========= L2 cache stats =========
L2_cache_bank[0]: Access = 774, Miss = 351, Miss_rate = 0.453, Pending_hits = 19, Reservation_fails = 639
L2_cache_bank[1]: Access = 643, Miss = 346, Miss_rate = 0.538, Pending_hits = 11, Reservation_fails = 373
L2_cache_bank[2]: Access = 797, Miss = 350, Miss_rate = 0.439, Pending_hits = 23, Reservation_fails = 494
L2_cache_bank[3]: Access = 649, Miss = 346, Miss_rate = 0.533, Pending_hits = 12, Reservation_fails = 361
L2_cache_bank[4]: Access = 740, Miss = 349, Miss_rate = 0.472, Pending_hits = 19, Reservation_fails = 575
L2_cache_bank[5]: Access = 644, Miss = 348, Miss_rate = 0.540, Pending_hits = 10, Reservation_fails = 356
L2_cache_bank[6]: Access = 632, Miss = 348, Miss_rate = 0.551, Pending_hits = 16, Reservation_fails = 417
L2_cache_bank[7]: Access = 641, Miss = 348, Miss_rate = 0.543, Pending_hits = 10, Reservation_fails = 332
L2_cache_bank[8]: Access = 708, Miss = 348, Miss_rate = 0.492, Pending_hits = 20, Reservation_fails = 428
L2_cache_bank[9]: Access = 641, Miss = 348, Miss_rate = 0.543, Pending_hits = 10, Reservation_fails = 433
L2_cache_bank[10]: Access = 658, Miss = 347, Miss_rate = 0.527, Pending_hits = 11, Reservation_fails = 312
L2_cache_bank[11]: Access = 634, Miss = 348, Miss_rate = 0.549, Pending_hits = 8, Reservation_fails = 494
L2_total_cache_accesses = 8161
L2_total_cache_misses = 4177
L2_total_cache_miss_rate = 0.5118
L2_total_cache_pending_hits = 169
L2_total_cache_reservation_fails = 5214
L2_total_cache_breakdown:
	L2_cache_stats_breakdown[GLOBAL_ACC_R][MISS] = 2056
	L2_cache_stats_breakdown[GLOBAL_ACC_R][RESERVATION_FAIL] = 1832
	L2_cache_stats_breakdown[CONST_ACC_R][HIT] = 880
	L2_cache_stats_breakdown[CONST_ACC_R][HIT_RESERVED] = 76
	L2_cache_stats_breakdown[CONST_ACC_R][MISS] = 34
	L2_cache_stats_breakdown[CONST_ACC_R][RESERVATION_FAIL] = 865
	L2_cache_stats_breakdown[TEXTURE_ACC_R][HIT] = 22
	L2_cache_stats_breakdown[TEXTURE_ACC_R][HIT_RESERVED] = 6
	L2_cache_stats_breakdown[TEXTURE_ACC_R][MISS] = 2
	L2_cache_stats_breakdown[TEXTURE_ACC_R][RESERVATION_FAIL] = 151
	L2_cache_stats_breakdown[GLOBAL_ACC_W][MISS] = 2056
	L2_cache_stats_breakdown[GLOBAL_ACC_W][RESERVATION_FAIL] = 2
	L2_cache_stats_breakdown[INST_ACC_R][HIT] = 2913
	L2_cache_stats_breakdown[INST_ACC_R][HIT_RESERVED] = 87
	L2_cache_stats_breakdown[INST_ACC_R][MISS] = 29
	L2_cache_stats_breakdown[INST_ACC_R][RESERVATION_FAIL] = 2364
L2_cache_data_port_util = 0.023
L2_cache_fill_port_util = 0.029

icnt_total_pkts_mem_to_simt=30601
icnt_total_pkts_simt_to_mem=16385
LD_mem_lat_dist  0 0 0 0 0 0 0 0 0 0 0 0 0 0 0 0 0 0 0 0 0 0 0 0 0 0 0
ST_mem_lat_dist  0 0 0 0 0 0 0 0 0 0 0 0 0 0 0 0 0 0 0 0 0 0 0 0 0 0 0
----------------------------Interconnect-DETAILS--------------------------------
Class 0:
Packet latency average = 13.4142
	minimum = 6
	maximum = 450
Network latency average = 11.4311
	minimum = 6
	maximum = 439
Slowest packet = 139b
Flit latency average = 10.1169
	minimum = 6
	maximum = 435
Slowest flit = 3713
Fragmentation average = 0.14845
	minimum = 0
	maximum = 417
Injected packet rate average = 0.0125836
	minimum = 0.0108035 (at node 1)
	maximum = 0.0165903 (at node 11)
Accepted packet rate average = 0.0125836
	minimum = 0.0108035 (at node 1)
	maximum = 0.0165903 (at node 11)
Injected flit rate average = 0.0362244
	minimum = 0.0221274 (at node 1)
	maximum = 0.0644255 (at node 11)
Accepted flit rate average= 0.0362244
	minimum = 0.0273106 (at node 15)
	maximum = 0.0446295 (at node d)
Injected packet length average = 2.87869
Accepted packet length average = 2.87869
Total in-flight flits = 0 (0 measured)
====== Overall Traffic Statistics ======
====== Traffic class 0 ======
Packet latency average = 13.4142 (1 samples)
	minimum = 6 (1 samples)
	maximum = 450 (1 samples)
Network latency average = 11.4311 (1 samples)
	minimum = 6 (1 samples)
	maximum = 439 (1 samples)
Flit latency average = 10.1169 (1 samples)
	minimum = 6 (1 samples)
	maximum = 435 (1 samples)
Fragmentation average = 0.14845 (1 samples)
	minimum = 0 (1 samples)
	maximum = 417 (1 samples)
Injected packet rate average = 0.0125836 (1 samples)
	minimum = 0.0108035 (1 samples)
	maximum = 0.0165903 (1 samples)
Accepted packet rate average = 0.0125836 (1 samples)
	minimum = 0.0108035 (1 samples)
	maximum = 0.0165903 (1 samples)
Injected flit rate average = 0.0362244 (1 samples)
	minimum = 0.0221274 (1 samples)
	maximum = 0.0644255 (1 samples)
Accepted flit rate average = 0.0362244 (1 samples)
	minimum = 0.0273106 (1 samples)
	maximum = 0.0446295 (1 samples)
Injected packet size average = 2.87869 (1 samples)
Accepted packet size average = 2.87869 (1 samples)
Hops average = 1 (1 samples)
----------------------------END-of-Interconnect-DETAILS-------------------------


gpgpu_simulation_time = 0 days, 0 hrs, 1 min, 32 sec (92 sec)
gpgpu_simulation_rate = 326814 (inst/sec)
gpgpu_simulation_rate = 522 (cycle/sec)
GPGPU-Sim: synchronize waiting for inactive GPU simulation
GPGPU-Sim API: Stream Manager State
GPGPU-Sim: detected inactive GPU simulation thread
GPU processing time: 91465.125000 (ms)
Total processing time: 91495.421875 (ms)


###############################################################

