

        *** GPGPU-Sim Simulator Version 3.2.2  [build 0] ***


GPGPU-Sim PTX: simulation mode 0 (can change with PTX_SIM_MODE_FUNC environment variable:
               1=functional simulation only, 0=detailed performance simulator)
GPGPU-Sim: Configuration options:

-network_mode                           1 # Interconnection network mode
-inter_config_file   config_fermi_islip.icnt # Interconnection network config file
-gpgpu_ptx_use_cuobjdump                    1 # Use cuobjdump to extract ptx and sass from binaries
-gpgpu_experimental_lib_support                    0 # Try to extract code from cuda libraries [Broken because of unknown cudaGetExportTable]
-gpgpu_ptx_convert_to_ptxplus                    0 # Convert SASS (native ISA) to ptxplus and run ptxplus
-gpgpu_ptx_force_max_capability                   20 # Force maximum compute capability
-gpgpu_ptx_inst_debug_to_file                    0 # Dump executed instructions' debug information to file
-gpgpu_ptx_inst_debug_file       inst_debug.txt # Executed instructions' debug output file
-gpgpu_ptx_inst_debug_thread_uid                    1 # Thread UID for executed instructions' debug output
-gpgpu_simd_model                       1 # 1 = post-dominator
-gpgpu_shader_core_pipeline              1536:32 # shader core pipeline config, i.e., {<nthread>:<warpsize>}
-gpgpu_tex_cache:l1  4:128:24,L:R:m:N:L,F:128:4,128:2 # per-shader L1 texture cache  (READ-ONLY) config  {<nsets>:<bsize>:<assoc>,<rep>:<wr>:<alloc>:<wr_alloc>,<mshr>:<N>:<merge>,<mq>:<rf>}
-gpgpu_const_cache:l1 64:64:2,L:R:f:N:L,A:2:32,4 # per-shader L1 constant memory cache  (READ-ONLY) config  {<nsets>:<bsize>:<assoc>,<rep>:<wr>:<alloc>:<wr_alloc>,<mshr>:<N>:<merge>,<mq>} 
-gpgpu_cache:il1     4:128:4,L:R:f:N:L,A:2:32,4 # shader L1 instruction cache config  {<nsets>:<bsize>:<assoc>,<rep>:<wr>:<alloc>:<wr_alloc>,<mshr>:<N>:<merge>,<mq>} 
-gpgpu_cache:dl1     32:128:4,L:L:m:N:H,A:32:8,8 # per-shader L1 data cache config  {<nsets>:<bsize>:<assoc>,<rep>:<wr>:<alloc>:<wr_alloc>,<mshr>:<N>:<merge>,<mq> | none}
-gpgpu_cache:dl1PrefL1                 none # per-shader L1 data cache config  {<nsets>:<bsize>:<assoc>,<rep>:<wr>:<alloc>:<wr_alloc>,<mshr>:<N>:<merge>,<mq> | none}
-gpgpu_cache:dl1PreShared                 none # per-shader L1 data cache config  {<nsets>:<bsize>:<assoc>,<rep>:<wr>:<alloc>:<wr_alloc>,<mshr>:<N>:<merge>,<mq> | none}
-gmem_skip_L1D                          0 # global memory access skip L1D cache (implements -Xptxas -dlcm=cg, default=no skip)
-gpgpu_perfect_mem                      0 # enable perfect memory mode (no cache miss)
-n_regfile_gating_group                    4 # group of lanes that should be read/written together)
-gpgpu_clock_gated_reg_file                    0 # enable clock gated reg file for power calculations
-gpgpu_clock_gated_lanes                    0 # enable clock gated lanes for power calculations
-gpgpu_shader_registers                32768 # Number of registers per shader core. Limits number of concurrent CTAs. (default 8192)
-gpgpu_shader_cta                       8 # Maximum number of concurrent CTAs in shader (default 8)
-gpgpu_num_cta_barriers                   16 # Maximum number of named barriers per CTA (default 16)
-gpgpu_n_clusters                      15 # number of processing clusters
-gpgpu_n_cores_per_cluster                    1 # number of simd cores per cluster
-gpgpu_n_cluster_ejection_buffer_size                    8 # number of packets in ejection buffer
-gpgpu_n_ldst_response_buffer_size                    2 # number of response packets in ld/st unit ejection buffer
-gpgpu_shmem_size                   16384 # Size of shared memory per shader core (default 16kB)
-gpgpu_shmem_size                   49152 # Size of shared memory per shader core (default 16kB)
-gpgpu_shmem_size_PrefL1                16384 # Size of shared memory per shader core (default 16kB)
-gpgpu_shmem_size_PrefShared                16384 # Size of shared memory per shader core (default 16kB)
-gpgpu_shmem_num_banks                   32 # Number of banks in the shared memory in each shader core (default 16)
-gpgpu_shmem_limited_broadcast                    0 # Limit shared memory to do one broadcast per cycle (default on)
-gpgpu_shmem_warp_parts                    1 # Number of portions a warp is divided into for shared memory bank conflict check 
-gpgpu_warpdistro_shader                   -1 # Specify which shader core to collect the warp size distribution from
-gpgpu_warp_issue_shader                    0 # Specify which shader core to collect the warp issue distribution from
-gpgpu_local_mem_map                    1 # Mapping from local memory space address to simulated GPU physical address space (default = enabled)
-gpgpu_num_reg_banks                   16 # Number of register banks (default = 8)
-gpgpu_reg_bank_use_warp_id                    0 # Use warp ID in mapping registers to banks (default = off)
-gpgpu_operand_collector_num_units_sp                    6 # number of collector units (default = 4)
-gpgpu_operand_collector_num_units_sfu                    8 # number of collector units (default = 4)
-gpgpu_operand_collector_num_units_mem                    2 # number of collector units (default = 2)
-gpgpu_operand_collector_num_units_gen                    0 # number of collector units (default = 0)
-gpgpu_operand_collector_num_in_ports_sp                    2 # number of collector unit in ports (default = 1)
-gpgpu_operand_collector_num_in_ports_sfu                    1 # number of collector unit in ports (default = 1)
-gpgpu_operand_collector_num_in_ports_mem                    1 # number of collector unit in ports (default = 1)
-gpgpu_operand_collector_num_in_ports_gen                    0 # number of collector unit in ports (default = 0)
-gpgpu_operand_collector_num_out_ports_sp                    2 # number of collector unit in ports (default = 1)
-gpgpu_operand_collector_num_out_ports_sfu                    1 # number of collector unit in ports (default = 1)
-gpgpu_operand_collector_num_out_ports_mem                    1 # number of collector unit in ports (default = 1)
-gpgpu_operand_collector_num_out_ports_gen                    0 # number of collector unit in ports (default = 0)
-gpgpu_coalesce_arch                   13 # Coalescing arch (default = 13, anything else is off for now)
-gpgpu_num_sched_per_core                    2 # Number of warp schedulers per core
-gpgpu_max_insn_issue_per_warp                    1 # Max number of instructions that can be issued per warp in one cycle by scheduler
-gpgpu_simt_core_sim_order                    1 # Select the simulation order of cores in a cluster (0=Fix, 1=Round-Robin)
-gpgpu_pipeline_widths        2,1,1,2,1,1,2 # Pipeline widths ID_OC_SP,ID_OC_SFU,ID_OC_MEM,OC_EX_SP,OC_EX_SFU,OC_EX_MEM,EX_WB
-gpgpu_num_sp_units                     2 # Number of SP units (default=1)
-gpgpu_num_sfu_units                    1 # Number of SF units (default=1)
-gpgpu_num_mem_units                    1 # Number if ldst units (default=1) WARNING: not hooked up to anything
-gpgpu_scheduler                      gto # Scheduler configuration: < lrr | gto | two_level_active > If two_level_active:<num_active_warps>:<inner_prioritization>:<outer_prioritization>For complete list of prioritization values see shader.h enum scheduler_prioritization_typeDefault: gto
-gpgpu_dram_scheduler                    1 # 0 = fifo, 1 = FR-FCFS (defaul)
-gpgpu_dram_partition_queues              8:8:8:8 # i2$:$2d:d2$:$2i
-l2_ideal                               0 # Use a ideal L2 cache that always hit
-gpgpu_cache:dl2     64:128:8,L:B:m:W:L,A:32:4,4:0,32 # unified banked L2 data cache config  {<nsets>:<bsize>:<assoc>,<rep>:<wr>:<alloc>:<wr_alloc>,<mshr>:<N>:<merge>,<mq>}
-gpgpu_cache:dl2_texture_only                    0 # L2 cache used for texture only
-gpgpu_n_mem                            6 # number of memory modules (e.g. memory controllers) in gpu
-gpgpu_n_sub_partition_per_mchannel                    2 # number of memory subpartition in each memory module
-gpgpu_n_mem_per_ctrlr                    2 # number of memory chips per memory controller
-gpgpu_memlatency_stat                   14 # track and display latency statistics 0x2 enables MC, 0x4 enables queue logs
-gpgpu_frfcfs_dram_sched_queue_size                   16 # 0 = unlimited (default); # entries per chip
-gpgpu_dram_return_queue_size                  116 # 0 = unlimited (default); # entries per chip
-gpgpu_dram_buswidth                    2 # default = 4 bytes (8 bytes per cycle at DDR)
-gpgpu_dram_burst_length                    8 # Burst length of each DRAM request (default = 4 data bus cycle)
-dram_data_command_freq_ratio                    4 # Frequency ratio between DRAM data bus and command bus (default = 2 times, i.e. DDR)
-gpgpu_dram_timing_opt nbk=16:CCD=2:RRD=6:RCD=12:RAS=28:RP=12:RC=40: CL=12:WL=4:CDLR=5:WR=12:nbkgrp=4:CCDL=3:RTPL=2 # DRAM timing parameters = {nbk:tCCD:tRRD:tRCD:tRAS:tRP:tRC:CL:WL:tCDLR:tWR:nbkgrp:tCCDL:tRTPL}
-rop_latency                          120 # ROP queue latency (default 85)
-dram_latency                         100 # DRAM latency (default 30)
-gpgpu_mem_addr_mapping dramid@8;00000000.00000000.00000000.00000000.0000RRRR.RRRRRRRR.BBBCCCCB.CCSSSSSS # mapping memory address to dram model {dramid@<start bit>;<memory address map>}
-gpgpu_mem_addr_test                    0 # run sweep test to check address mapping for aliased address
-gpgpu_mem_address_mask                    1 # 0 = old addressing mask, 1 = new addressing mask, 2 = new add. mask + flipped bank sel and chip sel bits
-gpuwattch_xml_file  gpuwattch_gtx480.xml # GPUWattch XML file
-power_simulation_enabled                    1 # Turn on power simulator (1=On, 0=Off)
-power_per_cycle_dump                    0 # Dump detailed power output each cycle
-power_trace_enabled                    0 # produce a file for the power trace (1=On, 0=Off)
-power_trace_zlevel                     6 # Compression level of the power trace output log (0=no comp, 9=highest)
-steady_power_levels_enabled                    0 # produce a file for the steady power levels (1=On, 0=Off)
-steady_state_definition                  8:4 # allowed deviation:number of samples
-gpgpu_max_cycle                        0 # terminates gpu simulation early (0 = no limit)
-gpgpu_max_insn                         0 # terminates gpu simulation early (0 = no limit)
-gpgpu_max_cta                          0 # terminates gpu simulation early (0 = no limit)
-gpgpu_runtime_stat                   500 # display runtime statistics such as dram utilization {<freq>:<flag>}
-liveness_message_freq                    1 # Minimum number of seconds between simulation liveness messages (0 = always print)
-gpgpu_flush_l1_cache                    0 # Flush L1 cache at the end of each kernel call
-gpgpu_flush_l2_cache                    0 # Flush L2 cache at the end of each kernel call
-gpgpu_deadlock_detect                    1 # Stop the simulation at deadlock (1=on (default), 0=off)
-gpgpu_ptx_instruction_classification                    0 # if enabled will classify ptx instruction types per kernel (Max 255 kernels now)
-gpgpu_ptx_sim_mode                     0 # Select between Performance (default) or Functional simulation (1)
-gpgpu_clock_domains 700.0:700.0:700.0:924.0 # Clock Domain Frequencies in MhZ {<Core Clock>:<ICNT Clock>:<L2 Clock>:<DRAM Clock>}
-gpgpu_max_concurrent_kernel                    8 # maximum kernels that can run concurrently on GPU
-gpgpu_cflog_interval                    0 # Interval between each snapshot in control flow logger
-visualizer_enabled                     0 # Turn on visualizer output (1=On, 0=Off)
-visualizer_outputfile                 NULL # Specifies the output log file for visualizer
-visualizer_zlevel                      6 # Compression level of the visualizer output log (0=no comp, 9=highest)
-trace_enabled                          0 # Turn on traces
-trace_components                    none # comma seperated list of traces to enable. Complete list found in trace_streams.tup. Default none
-trace_sampling_core                    0 # The core which is printed using CORE_DPRINTF. Default 0
-trace_sampling_memory_partition                   -1 # The memory partition which is printed using MEMPART_DPRINTF. Default -1 (i.e. all)
-enable_ptx_file_line_stats                    1 # Turn on PTX source line statistic profiling. (1 = On)
-ptx_line_stats_filename gpgpu_inst_stats.txt # Output file for PTX source line statistics.
-save_embedded_ptx                      0 # saves ptx files embedded in binary as <n>.ptx
-keep                                   0 # keep intermediate files created by GPGPU-Sim when interfacing with external programs
-gpgpu_ptx_save_converted_ptxplus                    0 # Saved converted ptxplus to a file
-ptx_opcode_latency_int         4,13,4,5,145 # Opcode latencies for integers <ADD,MAX,MUL,MAD,DIV>Default 1,1,19,25,145
-ptx_opcode_latency_fp          4,13,4,5,39 # Opcode latencies for single precision floating points <ADD,MAX,MUL,MAD,DIV>Default 1,1,1,1,30
-ptx_opcode_latency_dp         8,19,8,8,330 # Opcode latencies for double precision floating points <ADD,MAX,MUL,MAD,DIV>Default 8,8,8,8,335
-ptx_opcode_initiation_int            1,2,2,1,8 # Opcode initiation intervals for integers <ADD,MAX,MUL,MAD,DIV>Default 1,1,4,4,32
-ptx_opcode_initiation_fp            1,2,1,1,4 # Opcode initiation intervals for single precision floating points <ADD,MAX,MUL,MAD,DIV>Default 1,1,1,1,5
-ptx_opcode_initiation_dp         8,16,8,8,130 # Opcode initiation intervals for double precision floating points <ADD,MAX,MUL,MAD,DIV>Default 8,8,8,8,130
DRAM Timing Options:
nbk                                    16 # number of banks
CCD                                     2 # column to column delay
RRD                                     6 # minimal delay between activation of rows in different banks
RCD                                    12 # row to column delay
RAS                                    28 # time needed to activate row
RP                                     12 # time needed to precharge (deactivate) row
RC                                     40 # row cycle time
CDLR                                    5 # switching from write to read (changes tWTR)
WR                                     12 # last data-in to row precharge
CL                                     12 # CAS latency
WL                                      4 # Write latency
nbkgrp                                  4 # number of bank groups
CCDL                                    3 # column to column delay between accesses to different bank groups
RTPL                                    2 # read to precharge delay between accesses to different bank groups
Total number of memory sub partition = 12
addr_dec_mask[CHIP]  = 0000000000000000 	high:64 low:0
addr_dec_mask[BK]    = 000000000000e100 	high:16 low:8
addr_dec_mask[ROW]   = 000000000fff0000 	high:28 low:16
addr_dec_mask[COL]   = 0000000000001eff 	high:13 low:0
addr_dec_mask[BURST] = 000000000000003f 	high:6 low:0
sub_partition_id_mask = 0000000000000100
GPGPU-Sim uArch: clock freqs: 700000000.000000:700000000.000000:700000000.000000:924000000.000000
GPGPU-Sim uArch: clock periods: 0.00000000142857142857:0.00000000142857142857:0.00000000142857142857:0.00000000108225108225
*** Initializing Memory Statistics ***
GPGPU-Sim uArch: interconnect node map (shaderID+MemID to icntID)
GPGPU-Sim uArch: Memory nodes ID start from index: 15
GPGPU-Sim uArch:    0   1   2   3   4
GPGPU-Sim uArch:    5   6   7   8   9
GPGPU-Sim uArch:   10  11  12  13  14
GPGPU-Sim uArch:   15  16  17  18  19
GPGPU-Sim uArch:   20  21  22  23  24
GPGPU-Sim uArch:   25  26
GPGPU-Sim uArch: interconnect node reverse map (icntID to shaderID+MemID)
GPGPU-Sim uArch: Memory nodes start from ID: 15
GPGPU-Sim uArch:    0   1   2   3   4
GPGPU-Sim uArch:    5   6   7   8   9
GPGPU-Sim uArch:   10  11  12  13  14
GPGPU-Sim uArch:   15  16  17  18  19
GPGPU-Sim uArch:   20  21  22  23  24
GPGPU-Sim uArch:   25  26
fa24d9d62d9e9d43df0eb292e3b27e2e  /home/scratch/adwait/applications/benchmarks/CUDA/BFS/gpgpu_ptx_sim__BFS
GPGPU-Sim uArch: performance model initialization complete.
GPGPU-Sim PTX: __cudaRegisterFatBinary, fat_cubin_handle = 1, filename=bfs.cu
self exe links to: /home/scratch/adwait/applications/benchmarks/CUDA/BFS/gpgpu_ptx_sim__BFS
Running md5sum using "md5sum /home/scratch/adwait/applications/benchmarks/CUDA/BFS/gpgpu_ptx_sim__BFS "
Running cuobjdump using "$CUDA_INSTALL_PATH/bin/cuobjdump -ptx -elf -sass /home/scratch/adwait/applications/benchmarks/CUDA/BFS/gpgpu_ptx_sim__BFS > _cuobjdump_complete_output_CkZobW"
Parsing file _cuobjdump_complete_output_CkZobW
######### cuobjdump parser ########
## Adding new section ELF
Adding arch: sm_20
Adding identifier: bfs.cu
## Adding new section PTX
Adding ptx filename: _cuobjdump_1.ptx
Adding arch: sm_20
Adding identifier: bfs.cu
Done parsing!!!
GPGPU-Sim PTX: __cudaRegisterFunction _Z6KernelP4NodePiPbS2_S1_S2_i : hostFun 0x0x404fc4, fat_cubin_handle = 1
GPGPU-Sim PTX: instruction assembly for function '_Z6KernelP4NodePiPbS2_S1_S2_i'...   done.
GPGPU-Sim PTX: finding reconvergence points for '_Z6KernelP4NodePiPbS2_S1_S2_i'...
GPGPU-Sim PTX: Finding dominators for '_Z6KernelP4NodePiPbS2_S1_S2_i'...
GPGPU-Sim PTX: Finding immediate dominators for '_Z6KernelP4NodePiPbS2_S1_S2_i'...
GPGPU-Sim PTX: Finding postdominators for '_Z6KernelP4NodePiPbS2_S1_S2_i'...
GPGPU-Sim PTX: Finding immediate postdominators for '_Z6KernelP4NodePiPbS2_S1_S2_i'...
GPGPU-Sim PTX: pre-decoding instructions for '_Z6KernelP4NodePiPbS2_S1_S2_i'...
GPGPU-Sim PTX: reconvergence points for _Z6KernelP4NodePiPbS2_S1_S2_i...
GPGPU-Sim PTX:  1 (potential) branch divergence @  PC=0x030 (_1.ptx:72) @%p1 bra $Lt_0_5122;
GPGPU-Sim PTX:    immediate post dominator      @  PC=0x1e8 (_1.ptx:141) exit;
GPGPU-Sim PTX:  2 (potential) branch divergence @  PC=0x068 (_1.ptx:79) @%p2 bra $Lt_0_5122;
GPGPU-Sim PTX:    immediate post dominator      @  PC=0x1e8 (_1.ptx:141) exit;
GPGPU-Sim PTX:  3 (potential) branch divergence @  PC=0x0e0 (_1.ptx:97) @%p3 bra $Lt_0_5122;
GPGPU-Sim PTX:    immediate post dominator      @  PC=0x1e8 (_1.ptx:141) exit;
GPGPU-Sim PTX:  4 (potential) branch divergence @  PC=0x138 (_1.ptx:111) @%p4 bra $Lt_0_4354;
GPGPU-Sim PTX:    immediate post dominator      @  PC=0x1c8 (_1.ptx:134) add.s32 %r11, %r11, 1;
GPGPU-Sim PTX:  5 (potential) branch divergence @  PC=0x1e0 (_1.ptx:137) @%p5 bra $Lt_0_4098;
GPGPU-Sim PTX:    immediate post dominator      @  PC=0x1e8 (_1.ptx:141) exit;
GPGPU-Sim PTX: ... end of reconvergence points for _Z6KernelP4NodePiPbS2_S1_S2_i
GPGPU-Sim PTX: ... done pre-decoding instructions for '_Z6KernelP4NodePiPbS2_S1_S2_i'.
GPGPU-Sim PTX: finished parsing EMBEDDED .ptx file _1.ptx
Adding _cuobjdump_1.ptx with cubin handle 1
GPGPU-Sim PTX: extracting embedded .ptx to temporary file "_ptx_dsgqHZ"
Running: cat _ptx_dsgqHZ | sed 's/.version 1.5/.version 1.4/' | sed 's/, texmode_independent//' | sed 's/\(\.extern \.const\[1\] .b8 \w\+\)\[\]/\1\[1\]/' | sed 's/const\[.\]/const\[0\]/g' > _ptx2_8mWNd3
GPGPU-Sim PTX: generating ptxinfo using "$CUDA_INSTALL_PATH/bin/ptxas --gpu-name=sm_20 -v _ptx2_8mWNd3 --output-file  /dev/null 2> _ptx_dsgqHZinfo"
GPGPU-Sim PTX: Kernel '_Z6KernelP4NodePiPbS2_S1_S2_i' : regs=18, lmem=0, smem=0, cmem=84
GPGPU-Sim PTX: removing ptxinfo using "rm -f _ptx_dsgqHZ _ptx2_8mWNd3 _ptx_dsgqHZinfo"
GPGPU-Sim PTX: loading globals with explicit initializers... 
GPGPU-Sim PTX: finished loading globals (0 bytes total).
GPGPU-Sim PTX: loading constants with explicit initializers...  done.
Reading File
Input file: ./data/graph65536.txt
Read File
Copied Everything to GPU memory

GPGPU-Sim PTX: cudaLaunch for 0x0x404fc4 (mode=performance simulation) on stream 0
GPGPU-Sim PTX: pushing kernel '_Z6KernelP4NodePiPbS2_S1_S2_i' to stream 0, gridDim= (256,1,1) blockDim = (256,1,1) 
kernel '_Z6KernelP4NodePiPbS2_S1_S2_i' transfer to GPU hardware scheduler
GPGPU-Sim uArch: Shader 1 bind to kernel 1 '_Z6KernelP4NodePiPbS2_S1_S2_i'
GPGPU-Sim uArch: CTA/core = 6, limited by: threads regs
GPGPU-Sim uArch: core:  1, cta: 0 initialized @(1,0)
GPGPU-Sim uArch: Shader 2 bind to kernel 1 '_Z6KernelP4NodePiPbS2_S1_S2_i'
GPGPU-Sim uArch: core:  2, cta: 0 initialized @(1,0)
GPGPU-Sim uArch: Shader 3 bind to kernel 1 '_Z6KernelP4NodePiPbS2_S1_S2_i'
GPGPU-Sim uArch: core:  3, cta: 0 initialized @(1,0)
GPGPU-Sim uArch: Shader 4 bind to kernel 1 '_Z6KernelP4NodePiPbS2_S1_S2_i'
GPGPU-Sim uArch: core:  4, cta: 0 initialized @(1,0)
GPGPU-Sim uArch: Shader 5 bind to kernel 1 '_Z6KernelP4NodePiPbS2_S1_S2_i'
GPGPU-Sim uArch: core:  5, cta: 0 initialized @(1,0)
GPGPU-Sim uArch: Shader 6 bind to kernel 1 '_Z6KernelP4NodePiPbS2_S1_S2_i'
GPGPU-Sim uArch: core:  6, cta: 0 initialized @(1,0)
GPGPU-Sim uArch: Shader 7 bind to kernel 1 '_Z6KernelP4NodePiPbS2_S1_S2_i'
GPGPU-Sim uArch: core:  7, cta: 0 initialized @(1,0)
GPGPU-Sim uArch: Shader 8 bind to kernel 1 '_Z6KernelP4NodePiPbS2_S1_S2_i'
GPGPU-Sim uArch: core:  8, cta: 0 initialized @(1,0)
GPGPU-Sim uArch: Shader 9 bind to kernel 1 '_Z6KernelP4NodePiPbS2_S1_S2_i'
GPGPU-Sim uArch: core:  9, cta: 0 initialized @(1,0)
GPGPU-Sim uArch: Shader 10 bind to kernel 1 '_Z6KernelP4NodePiPbS2_S1_S2_i'
GPGPU-Sim uArch: core: 10, cta: 0 initialized @(1,0)
GPGPU-Sim uArch: Shader 11 bind to kernel 1 '_Z6KernelP4NodePiPbS2_S1_S2_i'
GPGPU-Sim uArch: core: 11, cta: 0 initialized @(1,0)
GPGPU-Sim uArch: Shader 12 bind to kernel 1 '_Z6KernelP4NodePiPbS2_S1_S2_i'
GPGPU-Sim uArch: core: 12, cta: 0 initialized @(1,0)
GPGPU-Sim uArch: Shader 13 bind to kernel 1 '_Z6KernelP4NodePiPbS2_S1_S2_i'
GPGPU-Sim uArch: core: 13, cta: 0 initialized @(1,0)
GPGPU-Sim uArch: Shader 14 bind to kernel 1 '_Z6KernelP4NodePiPbS2_S1_S2_i'
GPGPU-Sim uArch: core: 14, cta: 0 initialized @(1,0)
GPGPU-Sim uArch: Shader 0 bind to kernel 1 '_Z6KernelP4NodePiPbS2_S1_S2_i'
GPGPU-Sim uArch: core:  0, cta: 0 initialized @(1,0)
GPGPU-Sim uArch: core:  1, cta: 1 initialized @(2,0)
GPGPU-Sim uArch: core:  2, cta: 1 initialized @(2,0)
GPGPU-Sim uArch: core:  3, cta: 1 initialized @(2,0)
GPGPU-Sim uArch: core:  4, cta: 1 initialized @(2,0)
GPGPU-Sim uArch: core:  5, cta: 1 initialized @(2,0)
GPGPU-Sim uArch: core:  6, cta: 1 initialized @(2,0)
GPGPU-Sim uArch: core:  7, cta: 1 initialized @(2,0)
GPGPU-Sim uArch: core:  8, cta: 1 initialized @(2,0)
GPGPU-Sim uArch: core:  9, cta: 1 initialized @(2,0)
GPGPU-Sim uArch: core: 10, cta: 1 initialized @(2,0)
GPGPU-Sim uArch: core: 11, cta: 1 initialized @(2,0)
GPGPU-Sim uArch: core: 12, cta: 1 initialized @(2,0)
GPGPU-Sim uArch: core: 13, cta: 1 initialized @(2,0)
GPGPU-Sim uArch: core: 14, cta: 1 initialized @(2,0)
GPGPU-Sim uArch: core:  0, cta: 1 initialized @(2,0)
GPGPU-Sim uArch: core:  1, cta: 2 initialized @(3,0)
GPGPU-Sim uArch: core:  2, cta: 2 initialized @(3,0)
GPGPU-Sim uArch: core:  3, cta: 2 initialized @(3,0)
GPGPU-Sim uArch: core:  4, cta: 2 initialized @(3,0)
GPGPU-Sim uArch: core:  5, cta: 2 initialized @(3,0)
GPGPU-Sim uArch: core:  6, cta: 2 initialized @(3,0)
GPGPU-Sim uArch: core:  7, cta: 2 initialized @(3,0)
GPGPU-Sim uArch: core:  8, cta: 2 initialized @(3,0)
GPGPU-Sim uArch: core:  9, cta: 2 initialized @(3,0)
GPGPU-Sim uArch: core: 10, cta: 2 initialized @(3,0)
GPGPU-Sim uArch: core: 11, cta: 2 initialized @(3,0)
GPGPU-Sim uArch: core: 12, cta: 2 initialized @(3,0)
GPGPU-Sim uArch: core: 13, cta: 2 initialized @(3,0)
GPGPU-Sim uArch: core: 14, cta: 2 initialized @(3,0)
GPGPU-Sim uArch: core:  0, cta: 2 initialized @(3,0)
GPGPU-Sim uArch: core:  1, cta: 3 initialized @(4,0)
GPGPU-Sim uArch: core:  2, cta: 3 initialized @(4,0)
GPGPU-Sim uArch: core:  3, cta: 3 initialized @(4,0)
GPGPU-Sim uArch: core:  4, cta: 3 initialized @(4,0)
GPGPU-Sim uArch: core:  5, cta: 3 initialized @(4,0)
GPGPU-Sim uArch: core:  6, cta: 3 initialized @(4,0)
GPGPU-Sim uArch: core:  7, cta: 3 initialized @(4,0)
GPGPU-Sim uArch: core:  8, cta: 3 initialized @(4,0)
GPGPU-Sim uArch: core:  9, cta: 3 initialized @(4,0)
GPGPU-Sim uArch: core: 10, cta: 3 initialized @(4,0)
GPGPU-Sim uArch: core: 11, cta: 3 initialized @(4,0)
GPGPU-Sim uArch: core: 12, cta: 3 initialized @(4,0)
GPGPU-Sim uArch: core: 13, cta: 3 initialized @(4,0)
GPGPU-Sim uArch: core: 14, cta: 3 initialized @(4,0)
GPGPU-Sim uArch: core:  0, cta: 3 initialized @(4,0)
GPGPU-Sim uArch: core:  1, cta: 4 initialized @(5,0)
GPGPU-Sim uArch: core:  2, cta: 4 initialized @(5,0)
GPGPU-Sim uArch: core:  3, cta: 4 initialized @(5,0)
GPGPU-Sim uArch: core:  4, cta: 4 initialized @(5,0)
GPGPU-Sim uArch: core:  5, cta: 4 initialized @(5,0)
GPGPU-Sim uArch: core:  6, cta: 4 initialized @(5,0)
GPGPU-Sim uArch: core:  7, cta: 4 initialized @(5,0)
GPGPU-Sim uArch: core:  8, cta: 4 initialized @(5,0)
GPGPU-Sim uArch: core:  9, cta: 4 initialized @(5,0)
GPGPU-Sim uArch: core: 10, cta: 4 initialized @(5,0)
GPGPU-Sim uArch: core: 11, cta: 4 initialized @(5,0)
GPGPU-Sim uArch: core: 12, cta: 4 initialized @(5,0)
GPGPU-Sim uArch: core: 13, cta: 4 initialized @(5,0)
GPGPU-Sim uArch: core: 14, cta: 4 initialized @(5,0)
GPGPU-Sim uArch: core:  0, cta: 4 initialized @(5,0)
GPGPU-Sim uArch: core:  1, cta: 5 initialized @(6,0)
GPGPU-Sim uArch: core:  2, cta: 5 initialized @(6,0)
GPGPU-Sim uArch: core:  3, cta: 5 initialized @(6,0)
GPGPU-Sim uArch: core:  4, cta: 5 initialized @(6,0)
GPGPU-Sim uArch: core:  5, cta: 5 initialized @(6,0)
GPGPU-Sim uArch: core:  6, cta: 5 initialized @(6,0)
GPGPU-Sim uArch: core:  7, cta: 5 initialized @(6,0)
GPGPU-Sim uArch: core:  8, cta: 5 initialized @(6,0)
GPGPU-Sim uArch: core:  9, cta: 5 initialized @(6,0)
GPGPU-Sim uArch: core: 10, cta: 5 initialized @(6,0)
GPGPU-Sim uArch: core: 11, cta: 5 initialized @(6,0)
GPGPU-Sim uArch: core: 12, cta: 5 initialized @(6,0)
GPGPU-Sim uArch: core: 13, cta: 5 initialized @(6,0)
GPGPU-Sim uArch: core: 14, cta: 5 initialized @(6,0)
GPGPU-Sim uArch: core:  0, cta: 5 initialized @(6,0)
GPGPU-Sim PTX: 100000 instructions simulated : ctaid=(57,0,0) tid=(223,0,0)
GPGPU-Sim uArch: cycles simulated: 500  inst.: 92064 (ipc=184.1) sim_rate=92064 (inst/sec) elapsed = 0:0:00:01 / Wed May  1 12:43:14 2019
GPGPU-Sim PTX: 200000 instructions simulated : ctaid=(30,0,0) tid=(127,0,0)
GPGPU-Sim PTX: 300000 instructions simulated : ctaid=(81,0,0) tid=(93,0,0)
GPGPU-Sim uArch: Shader 3 finished CTA #0 (1286,0), 5 CTAs running
GPGPU-Sim uArch: core:  3, cta: 0 initialized @(1287,0)
GPGPU-Sim uArch: Shader 4 finished CTA #0 (1289,0), 5 CTAs running
GPGPU-Sim uArch: core:  4, cta: 0 initialized @(1290,0)
GPGPU-Sim uArch: Shader 2 finished CTA #0 (1292,0), 5 CTAs running
GPGPU-Sim uArch: core:  2, cta: 0 initialized @(1293,0)
GPGPU-Sim uArch: Shader 3 finished CTA #2 (1294,0), 5 CTAs running
GPGPU-Sim uArch: Shader 3 finished CTA #3 (1294,0), 4 CTAs running
GPGPU-Sim uArch: Shader 3 finished CTA #4 (1294,0), 3 CTAs running
GPGPU-Sim uArch: core:  3, cta: 2 initialized @(1295,0)
GPGPU-Sim uArch: core:  3, cta: 3 initialized @(1296,0)
GPGPU-Sim uArch: Shader 2 finished CTA #2 (1296,0), 5 CTAs running
GPGPU-Sim uArch: Shader 2 finished CTA #3 (1296,0), 4 CTAs running
GPGPU-Sim uArch: Shader 2 finished CTA #4 (1296,0), 3 CTAs running
GPGPU-Sim uArch: core:  2, cta: 2 initialized @(1297,0)
GPGPU-Sim uArch: core:  3, cta: 4 initialized @(1297,0)
GPGPU-Sim uArch: core:  2, cta: 3 initialized @(1298,0)
GPGPU-Sim uArch: core:  2, cta: 4 initialized @(1299,0)
GPGPU-Sim uArch: Shader 0 finished CTA #5 (1300,0), 5 CTAs running
GPGPU-Sim uArch: core:  0, cta: 5 initialized @(1301,0)
GPGPU-Sim uArch: Shader 5 finished CTA #0 (1302,0), 5 CTAs running
GPGPU-Sim uArch: core:  5, cta: 0 initialized @(1303,0)
GPGPU-Sim uArch: Shader 2 finished CTA #1 (1304,0), 5 CTAs running
GPGPU-Sim uArch: core:  2, cta: 1 initialized @(1305,0)
GPGPU-Sim uArch: Shader 4 finished CTA #4 (1305,0), 5 CTAs running
GPGPU-Sim uArch: Shader 4 finished CTA #5 (1305,0), 4 CTAs running
GPGPU-Sim uArch: core:  4, cta: 4 initialized @(1306,0)
GPGPU-Sim uArch: Shader 3 finished CTA #1 (1306,0), 5 CTAs running
GPGPU-Sim uArch: core:  3, cta: 1 initialized @(1307,0)
GPGPU-Sim uArch: core:  4, cta: 5 initialized @(1307,0)
GPGPU-Sim uArch: Shader 0 finished CTA #2 (1308,0), 5 CTAs running
GPGPU-Sim uArch: Shader 0 finished CTA #3 (1308,0), 4 CTAs running
GPGPU-Sim uArch: Shader 0 finished CTA #4 (1308,0), 3 CTAs running
GPGPU-Sim uArch: Shader 1 finished CTA #5 (1308,0), 5 CTAs running
GPGPU-Sim uArch: core:  0, cta: 2 initialized @(1309,0)
GPGPU-Sim uArch: core:  1, cta: 5 initialized @(1309,0)
GPGPU-Sim uArch: core:  0, cta: 3 initialized @(1310,0)
GPGPU-Sim uArch: core:  0, cta: 4 initialized @(1311,0)
GPGPU-Sim uArch: Shader 4 finished CTA #1 (1313,0), 5 CTAs running
GPGPU-Sim uArch: Shader 4 finished CTA #2 (1313,0), 4 CTAs running
GPGPU-Sim uArch: Shader 4 finished CTA #3 (1313,0), 3 CTAs running
GPGPU-Sim uArch: core:  4, cta: 1 initialized @(1314,0)
GPGPU-Sim uArch: Shader 1 finished CTA #3 (1314,0), 5 CTAs running
GPGPU-Sim uArch: core:  1, cta: 3 initialized @(1315,0)
GPGPU-Sim uArch: core:  4, cta: 2 initialized @(1315,0)
GPGPU-Sim uArch: core:  4, cta: 3 initialized @(1316,0)
GPGPU-Sim uArch: Shader 0 finished CTA #0 (1316,0), 5 CTAs running
GPGPU-Sim uArch: Shader 0 finished CTA #1 (1316,0), 4 CTAs running
GPGPU-Sim uArch: core:  0, cta: 0 initialized @(1317,0)
GPGPU-Sim uArch: core:  0, cta: 1 initialized @(1318,0)
GPGPU-Sim uArch: Shader 6 finished CTA #3 (1318,0), 5 CTAs running
GPGPU-Sim uArch: Shader 6 finished CTA #4 (1318,0), 4 CTAs running
GPGPU-Sim uArch: core:  6, cta: 3 initialized @(1319,0)
GPGPU-Sim uArch: core:  6, cta: 4 initialized @(1320,0)
GPGPU-Sim uArch: Shader 5 finished CTA #4 (1320,0), 5 CTAs running
GPGPU-Sim uArch: Shader 5 finished CTA #5 (1320,0), 4 CTAs running
GPGPU-Sim uArch: core:  5, cta: 4 initialized @(1321,0)
GPGPU-Sim uArch: core:  5, cta: 5 initialized @(1322,0)
GPGPU-Sim uArch: Shader 1 finished CTA #1 (1323,0), 5 CTAs running
GPGPU-Sim uArch: Shader 1 finished CTA #2 (1323,0), 4 CTAs running
GPGPU-Sim uArch: core:  1, cta: 1 initialized @(1324,0)
GPGPU-Sim uArch: Shader 8 finished CTA #4 (1324,0), 5 CTAs running
GPGPU-Sim uArch: core:  8, cta: 4 initialized @(1325,0)
GPGPU-Sim uArch: core:  1, cta: 2 initialized @(1325,0)
GPGPU-Sim uArch: Shader 6 finished CTA #0 (1326,0), 5 CTAs running
GPGPU-Sim uArch: Shader 6 finished CTA #1 (1326,0), 4 CTAs running
GPGPU-Sim uArch: Shader 6 finished CTA #2 (1326,0), 3 CTAs running
GPGPU-Sim uArch: core:  6, cta: 0 initialized @(1327,0)
GPGPU-Sim uArch: core:  6, cta: 1 initialized @(1328,0)
GPGPU-Sim uArch: Shader 2 finished CTA #5 (1328,0), 5 CTAs running
GPGPU-Sim uArch: Shader 5 finished CTA #1 (1328,0), 5 CTAs running
GPGPU-Sim uArch: Shader 5 finished CTA #2 (1328,0), 4 CTAs running
GPGPU-Sim uArch: Shader 5 finished CTA #3 (1328,0), 3 CTAs running
GPGPU-Sim uArch: core:  2, cta: 5 initialized @(1329,0)
GPGPU-Sim uArch: core:  5, cta: 1 initialized @(1329,0)
GPGPU-Sim uArch: core:  6, cta: 2 initialized @(1329,0)
GPGPU-Sim uArch: core:  5, cta: 2 initialized @(1330,0)
GPGPU-Sim uArch: Shader 3 finished CTA #5 (1330,0), 5 CTAs running
GPGPU-Sim uArch: core:  3, cta: 5 initialized @(1331,0)
GPGPU-Sim uArch: core:  5, cta: 3 initialized @(1331,0)
GPGPU-Sim uArch: Shader 1 finished CTA #4 (1331,0), 5 CTAs running
GPGPU-Sim uArch: core:  1, cta: 4 initialized @(1332,0)
GPGPU-Sim uArch: Shader 8 finished CTA #0 (1332,0), 5 CTAs running
GPGPU-Sim uArch: Shader 8 finished CTA #1 (1332,0), 4 CTAs running
GPGPU-Sim uArch: Shader 8 finished CTA #2 (1332,0), 3 CTAs running
GPGPU-Sim uArch: Shader 8 finished CTA #3 (1332,0), 2 CTAs running
GPGPU-Sim uArch: core:  8, cta: 0 initialized @(1333,0)
GPGPU-Sim uArch: core:  8, cta: 1 initialized @(1334,0)
GPGPU-Sim uArch: Shader 13 finished CTA #5 (1334,0), 5 CTAs running
GPGPU-Sim uArch: Shader 13 finished CTA #0 (1334,0), 4 CTAs running
GPGPU-Sim uArch: core: 13, cta: 0 initialized @(1335,0)
GPGPU-Sim uArch: core:  8, cta: 2 initialized @(1335,0)
GPGPU-Sim uArch: core: 13, cta: 5 initialized @(1336,0)
GPGPU-Sim uArch: core:  8, cta: 3 initialized @(1336,0)
GPGPU-Sim uArch: Shader 13 finished CTA #2 (1338,0), 5 CTAs running
GPGPU-Sim uArch: Shader 13 finished CTA #3 (1338,0), 4 CTAs running
GPGPU-Sim uArch: core: 13, cta: 2 initialized @(1339,0)
GPGPU-Sim uArch: core: 13, cta: 3 initialized @(1340,0)
GPGPU-Sim uArch: Shader 8 finished CTA #5 (1340,0), 5 CTAs running
GPGPU-Sim uArch: core:  8, cta: 5 initialized @(1341,0)
GPGPU-Sim uArch: Shader 6 finished CTA #5 (1342,0), 5 CTAs running
GPGPU-Sim uArch: core:  6, cta: 5 initialized @(1343,0)
GPGPU-Sim uArch: Shader 10 finished CTA #2 (1344,0), 5 CTAs running
GPGPU-Sim uArch: Shader 10 finished CTA #3 (1344,0), 4 CTAs running
GPGPU-Sim uArch: Shader 10 finished CTA #4 (1344,0), 3 CTAs running
GPGPU-Sim uArch: Shader 10 finished CTA #5 (1344,0), 2 CTAs running
GPGPU-Sim uArch: Shader 10 finished CTA #0 (1344,0), 1 CTAs running
GPGPU-Sim uArch: core: 10, cta: 0 initialized @(1345,0)
GPGPU-Sim uArch: core: 10, cta: 2 initialized @(1346,0)
GPGPU-Sim uArch: core: 10, cta: 3 initialized @(1347,0)
GPGPU-Sim uArch: core: 10, cta: 4 initialized @(1348,0)
GPGPU-Sim uArch: Shader 9 finished CTA #0 (1348,0), 5 CTAs running
GPGPU-Sim uArch: Shader 9 finished CTA #1 (1348,0), 4 CTAs running
GPGPU-Sim uArch: Shader 12 finished CTA #5 (1348,0), 5 CTAs running
GPGPU-Sim uArch: Shader 12 finished CTA #0 (1348,0), 4 CTAs running
GPGPU-Sim uArch: core: 12, cta: 0 initialized @(1349,0)
GPGPU-Sim uArch: core:  9, cta: 0 initialized @(1349,0)
GPGPU-Sim uArch: core: 10, cta: 5 initialized @(1349,0)
GPGPU-Sim uArch: core: 12, cta: 5 initialized @(1350,0)
GPGPU-Sim uArch: core:  9, cta: 1 initialized @(1350,0)
GPGPU-Sim uArch: Shader 9 finished CTA #3 (1350,0), 5 CTAs running
GPGPU-Sim uArch: core:  9, cta: 3 initialized @(1351,0)
GPGPU-Sim uArch: Shader 11 finished CTA #3 (1352,0), 5 CTAs running
GPGPU-Sim uArch: core: 11, cta: 3 initialized @(1353,0)
GPGPU-Sim uArch: Shader 10 finished CTA #1 (1353,0), 5 CTAs running
GPGPU-Sim uArch: core: 10, cta: 1 initialized @(1354,0)
GPGPU-Sim uArch: Shader 13 finished CTA #1 (1354,0), 5 CTAs running
GPGPU-Sim uArch: core: 13, cta: 1 initialized @(1355,0)
GPGPU-Sim uArch: Shader 12 finished CTA #3 (1356,0), 5 CTAs running
GPGPU-Sim uArch: Shader 12 finished CTA #4 (1356,0), 4 CTAs running
GPGPU-Sim uArch: core: 12, cta: 3 initialized @(1357,0)
GPGPU-Sim uArch: core: 12, cta: 4 initialized @(1358,0)
GPGPU-Sim uArch: Shader 7 finished CTA #3 (1358,0), 5 CTAs running
GPGPU-Sim uArch: Shader 7 finished CTA #4 (1358,0), 4 CTAs running
GPGPU-Sim uArch: Shader 14 finished CTA #5 (1358,0), 5 CTAs running
GPGPU-Sim uArch: Shader 14 finished CTA #0 (1358,0), 4 CTAs running
GPGPU-Sim uArch: core: 14, cta: 0 initialized @(1359,0)
GPGPU-Sim uArch: core:  7, cta: 3 initialized @(1359,0)
GPGPU-Sim uArch: core: 14, cta: 5 initialized @(1360,0)
GPGPU-Sim uArch: core:  7, cta: 4 initialized @(1360,0)
GPGPU-Sim uArch: Shader 14 finished CTA #2 (1362,0), 5 CTAs running
GPGPU-Sim uArch: Shader 14 finished CTA #3 (1362,0), 4 CTAs running
GPGPU-Sim uArch: core: 14, cta: 2 initialized @(1363,0)
GPGPU-Sim uArch: core: 14, cta: 3 initialized @(1364,0)
GPGPU-Sim uArch: Shader 9 finished CTA #2 (1366,0), 5 CTAs running
GPGPU-Sim uArch: core:  9, cta: 2 initialized @(1367,0)
GPGPU-Sim uArch: Shader 11 finished CTA #0 (1368,0), 5 CTAs running
GPGPU-Sim uArch: Shader 11 finished CTA #1 (1368,0), 4 CTAs running
GPGPU-Sim uArch: Shader 11 finished CTA #2 (1368,0), 3 CTAs running
GPGPU-Sim uArch: core: 11, cta: 0 initialized @(1369,0)
GPGPU-Sim uArch: core: 11, cta: 1 initialized @(1370,0)
GPGPU-Sim uArch: Shader 13 finished CTA #4 (1370,0), 5 CTAs running
GPGPU-Sim uArch: core: 13, cta: 4 initialized @(1371,0)
GPGPU-Sim uArch: core: 11, cta: 2 initialized @(1371,0)
GPGPU-Sim uArch: Shader 12 finished CTA #1 (1372,0), 5 CTAs running
GPGPU-Sim uArch: Shader 12 finished CTA #2 (1372,0), 4 CTAs running
GPGPU-Sim uArch: core: 12, cta: 1 initialized @(1373,0)
GPGPU-Sim uArch: core: 12, cta: 2 initialized @(1374,0)
GPGPU-Sim uArch: Shader 7 finished CTA #1 (1374,0), 5 CTAs running
GPGPU-Sim uArch: Shader 7 finished CTA #2 (1374,0), 4 CTAs running
GPGPU-Sim uArch: Shader 9 finished CTA #4 (1374,0), 5 CTAs running
GPGPU-Sim uArch: Shader 9 finished CTA #5 (1374,0), 4 CTAs running
GPGPU-Sim uArch: core:  7, cta: 1 initialized @(1375,0)
GPGPU-Sim uArch: core:  9, cta: 4 initialized @(1375,0)
GPGPU-Sim uArch: core:  7, cta: 2 initialized @(1376,0)
GPGPU-Sim uArch: core:  9, cta: 5 initialized @(1376,0)
GPGPU-Sim uArch: Shader 11 finished CTA #4 (1376,0), 5 CTAs running
GPGPU-Sim uArch: Shader 11 finished CTA #5 (1376,0), 4 CTAs running
GPGPU-Sim uArch: core: 11, cta: 4 initialized @(1377,0)
GPGPU-Sim uArch: core: 11, cta: 5 initialized @(1378,0)
GPGPU-Sim uArch: Shader 14 finished CTA #1 (1378,0), 5 CTAs running
GPGPU-Sim uArch: core: 14, cta: 1 initialized @(1379,0)
GPGPU-Sim uArch: Shader 7 finished CTA #5 (1390,0), 5 CTAs running
GPGPU-Sim uArch: Shader 7 finished CTA #0 (1390,0), 4 CTAs running
GPGPU-Sim uArch: core:  7, cta: 0 initialized @(1391,0)
GPGPU-Sim uArch: core:  7, cta: 5 initialized @(1392,0)
GPGPU-Sim uArch: Shader 14 finished CTA #4 (1394,0), 5 CTAs running
GPGPU-Sim uArch: core: 14, cta: 4 initialized @(1395,0)
GPGPU-Sim PTX: 400000 instructions simulated : ctaid=(108,0,0) tid=(21,0,0)
GPGPU-Sim uArch: cycles simulated: 1500  inst.: 451944 (ipc=301.3) sim_rate=225972 (inst/sec) elapsed = 0:0:00:02 / Wed May  1 12:43:15 2019
GPGPU-Sim PTX: 500000 instructions simulated : ctaid=(175,0,0) tid=(53,0,0)
GPGPU-Sim PTX: 600000 instructions simulated : ctaid=(140,0,0) tid=(245,0,0)
GPGPU-Sim uArch: Shader 1 finished CTA #5 (1780,0), 5 CTAs running
GPGPU-Sim uArch: core:  1, cta: 5 initialized @(1781,0)
GPGPU-Sim uArch: Shader 3 finished CTA #0 (1794,0), 5 CTAs running
GPGPU-Sim uArch: core:  3, cta: 0 initialized @(1795,0)
GPGPU-Sim uArch: Shader 2 finished CTA #0 (1798,0), 5 CTAs running
GPGPU-Sim uArch: core:  2, cta: 0 initialized @(1799,0)
GPGPU-Sim uArch: Shader 4 finished CTA #0 (1811,0), 5 CTAs running
GPGPU-Sim uArch: core:  4, cta: 0 initialized @(1812,0)
GPGPU-Sim uArch: Shader 2 finished CTA #2 (1814,0), 5 CTAs running
GPGPU-Sim uArch: core:  2, cta: 2 initialized @(1815,0)
GPGPU-Sim uArch: Shader 0 finished CTA #2 (1823,0), 5 CTAs running
GPGPU-Sim uArch: core:  0, cta: 2 initialized @(1824,0)
GPGPU-Sim uArch: Shader 5 finished CTA #0 (1831,0), 5 CTAs running
GPGPU-Sim uArch: core:  5, cta: 0 initialized @(1832,0)
GPGPU-Sim uArch: Shader 1 finished CTA #3 (1833,0), 5 CTAs running
GPGPU-Sim uArch: core:  1, cta: 3 initialized @(1834,0)
GPGPU-Sim uArch: Shader 8 finished CTA #4 (1836,0), 5 CTAs running
GPGPU-Sim uArch: core:  8, cta: 4 initialized @(1837,0)
GPGPU-Sim uArch: Shader 6 finished CTA #4 (1855,0), 5 CTAs running
GPGPU-Sim uArch: core:  6, cta: 4 initialized @(1856,0)
GPGPU-Sim uArch: Shader 3 finished CTA #2 (1856,0), 5 CTAs running
GPGPU-Sim uArch: Shader 3 finished CTA #3 (1856,0), 4 CTAs running
GPGPU-Sim uArch: Shader 3 finished CTA #4 (1856,0), 3 CTAs running
GPGPU-Sim uArch: core:  3, cta: 2 initialized @(1857,0)
GPGPU-Sim uArch: core:  3, cta: 3 initialized @(1858,0)
GPGPU-Sim uArch: core:  3, cta: 4 initialized @(1859,0)
GPGPU-Sim uArch: Shader 2 finished CTA #3 (1861,0), 5 CTAs running
GPGPU-Sim uArch: core:  2, cta: 3 initialized @(1862,0)
GPGPU-Sim uArch: Shader 4 finished CTA #5 (1864,0), 5 CTAs running
GPGPU-Sim uArch: core:  4, cta: 5 initialized @(1865,0)
GPGPU-Sim uArch: Shader 1 finished CTA #1 (1869,0), 5 CTAs running
GPGPU-Sim uArch: Shader 1 finished CTA #2 (1869,0), 4 CTAs running
GPGPU-Sim uArch: core:  1, cta: 1 initialized @(1870,0)
GPGPU-Sim uArch: core:  1, cta: 2 initialized @(1871,0)
GPGPU-Sim uArch: Shader 10 finished CTA #2 (1872,0), 5 CTAs running
GPGPU-Sim uArch: core: 10, cta: 2 initialized @(1873,0)
GPGPU-Sim uArch: Shader 0 finished CTA #3 (1879,0), 5 CTAs running
GPGPU-Sim uArch: core:  0, cta: 3 initialized @(1880,0)
GPGPU-Sim uArch: Shader 5 finished CTA #5 (1898,0), 5 CTAs running
GPGPU-Sim uArch: core:  5, cta: 5 initialized @(1899,0)
GPGPU-Sim uArch: Shader 11 finished CTA #1 (1906,0), 5 CTAs running
GPGPU-Sim uArch: core: 11, cta: 1 initialized @(1907,0)
GPGPU-Sim uArch: Shader 12 finished CTA #3 (1907,0), 5 CTAs running
GPGPU-Sim uArch: core: 12, cta: 3 initialized @(1908,0)
GPGPU-Sim uArch: Shader 0 finished CTA #4 (1915,0), 5 CTAs running
GPGPU-Sim uArch: Shader 0 finished CTA #5 (1915,0), 4 CTAs running
GPGPU-Sim uArch: Shader 5 finished CTA #4 (1915,0), 5 CTAs running
GPGPU-Sim uArch: core:  0, cta: 4 initialized @(1916,0)
GPGPU-Sim uArch: core:  5, cta: 4 initialized @(1916,0)
GPGPU-Sim uArch: core:  0, cta: 5 initialized @(1917,0)
GPGPU-Sim uArch: Shader 8 finished CTA #1 (1923,0), 5 CTAs running
GPGPU-Sim uArch: core:  8, cta: 1 initialized @(1924,0)
GPGPU-Sim uArch: Shader 4 finished CTA #1 (1925,0), 5 CTAs running
GPGPU-Sim uArch: core:  4, cta: 1 initialized @(1926,0)
GPGPU-Sim uArch: Shader 2 finished CTA #4 (1927,0), 5 CTAs running
GPGPU-Sim uArch: core:  2, cta: 4 initialized @(1928,0)
GPGPU-Sim uArch: Shader 5 finished CTA #1 (1931,0), 5 CTAs running
GPGPU-Sim uArch: core:  5, cta: 1 initialized @(1932,0)
GPGPU-Sim uArch: Shader 6 finished CTA #3 (1936,0), 5 CTAs running
GPGPU-Sim uArch: Shader 13 finished CTA #0 (1936,0), 5 CTAs running
GPGPU-Sim uArch: core:  6, cta: 3 initialized @(1937,0)
GPGPU-Sim uArch: core: 13, cta: 0 initialized @(1937,0)
GPGPU-Sim uArch: Shader 4 finished CTA #4 (1941,0), 5 CTAs running
GPGPU-Sim uArch: Shader 8 finished CTA #0 (1941,0), 5 CTAs running
GPGPU-Sim uArch: core:  4, cta: 4 initialized @(1942,0)
GPGPU-Sim uArch: core:  8, cta: 0 initialized @(1942,0)
GPGPU-Sim uArch: Shader 13 finished CTA #1 (1946,0), 5 CTAs running
GPGPU-Sim uArch: core: 13, cta: 1 initialized @(1947,0)
GPGPU-Sim PTX: 700000 instructions simulated : ctaid=(189,0,0) tid=(77,0,0)
GPGPU-Sim uArch: Shader 6 finished CTA #0 (1952,0), 5 CTAs running
GPGPU-Sim uArch: Shader 6 finished CTA #1 (1952,0), 4 CTAs running
GPGPU-Sim uArch: core:  6, cta: 0 initialized @(1953,0)
GPGPU-Sim uArch: core:  6, cta: 1 initialized @(1954,0)
GPGPU-Sim uArch: Shader 10 finished CTA #0 (1956,0), 5 CTAs running
GPGPU-Sim uArch: core: 10, cta: 0 initialized @(1957,0)
GPGPU-Sim uArch: Shader 0 finished CTA #0 (1959,0), 5 CTAs running
GPGPU-Sim uArch: core:  0, cta: 0 initialized @(1960,0)
GPGPU-Sim uArch: Shader 14 finished CTA #0 (1964,0), 5 CTAs running
GPGPU-Sim uArch: core: 14, cta: 0 initialized @(1965,0)
GPGPU-Sim uArch: Shader 4 finished CTA #2 (1965,0), 5 CTAs running
GPGPU-Sim uArch: core:  4, cta: 2 initialized @(1966,0)
GPGPU-Sim uArch: Shader 7 finished CTA #3 (1967,0), 5 CTAs running
GPGPU-Sim uArch: core:  7, cta: 3 initialized @(1968,0)
GPGPU-Sim uArch: Shader 5 finished CTA #2 (1971,0), 5 CTAs running
GPGPU-Sim uArch: core:  5, cta: 2 initialized @(1972,0)
GPGPU-Sim uArch: Shader 10 finished CTA #3 (1972,0), 5 CTAs running
GPGPU-Sim uArch: core: 10, cta: 3 initialized @(1973,0)
GPGPU-Sim uArch: Shader 11 finished CTA #2 (1976,0), 5 CTAs running
GPGPU-Sim uArch: core: 11, cta: 2 initialized @(1977,0)
GPGPU-Sim uArch: Shader 3 finished CTA #1 (1978,0), 5 CTAs running
GPGPU-Sim uArch: core:  3, cta: 1 initialized @(1979,0)
GPGPU-Sim uArch: Shader 2 finished CTA #1 (1982,0), 5 CTAs running
GPGPU-Sim uArch: core:  2, cta: 1 initialized @(1983,0)
GPGPU-Sim uArch: Shader 9 finished CTA #1 (1987,0), 5 CTAs running
GPGPU-Sim uArch: core:  9, cta: 1 initialized @(1988,0)
GPGPU-Sim uArch: Shader 6 finished CTA #2 (1994,0), 5 CTAs running
GPGPU-Sim uArch: core:  6, cta: 2 initialized @(1995,0)
GPGPU-Sim uArch: Shader 3 finished CTA #5 (2002,0), 5 CTAs running
GPGPU-Sim uArch: core:  3, cta: 5 initialized @(2003,0)
GPGPU-Sim uArch: Shader 7 finished CTA #1 (2005,0), 5 CTAs running
GPGPU-Sim uArch: core:  7, cta: 1 initialized @(2006,0)
GPGPU-Sim uArch: Shader 1 finished CTA #4 (2006,0), 5 CTAs running
GPGPU-Sim uArch: Shader 2 finished CTA #5 (2006,0), 5 CTAs running
GPGPU-Sim uArch: core:  1, cta: 4 initialized @(2007,0)
GPGPU-Sim uArch: core:  2, cta: 5 initialized @(2007,0)
GPGPU-Sim uArch: Shader 0 finished CTA #1 (2007,0), 5 CTAs running
GPGPU-Sim uArch: Shader 10 finished CTA #4 (2007,0), 5 CTAs running
GPGPU-Sim uArch: core: 10, cta: 4 initialized @(2008,0)
GPGPU-Sim uArch: core:  0, cta: 1 initialized @(2008,0)
GPGPU-Sim uArch: Shader 4 finished CTA #3 (2009,0), 5 CTAs running
GPGPU-Sim uArch: core:  4, cta: 3 initialized @(2010,0)
GPGPU-Sim uArch: Shader 6 finished CTA #5 (2010,0), 5 CTAs running
GPGPU-Sim uArch: core:  6, cta: 5 initialized @(2011,0)
GPGPU-Sim uArch: Shader 9 finished CTA #0 (2011,0), 5 CTAs running
GPGPU-Sim uArch: Shader 12 finished CTA #4 (2011,0), 5 CTAs running
GPGPU-Sim uArch: core:  9, cta: 0 initialized @(2012,0)
GPGPU-Sim uArch: core: 12, cta: 4 initialized @(2012,0)
GPGPU-Sim uArch: Shader 10 finished CTA #1 (2015,0), 5 CTAs running
GPGPU-Sim uArch: core: 10, cta: 1 initialized @(2016,0)
GPGPU-Sim uArch: Shader 13 finished CTA #4 (2017,0), 5 CTAs running
GPGPU-Sim uArch: core: 13, cta: 4 initialized @(2018,0)
GPGPU-Sim uArch: Shader 9 finished CTA #3 (2019,0), 5 CTAs running
GPGPU-Sim uArch: Shader 12 finished CTA #0 (2019,0), 5 CTAs running
GPGPU-Sim uArch: Shader 12 finished CTA #1 (2019,0), 4 CTAs running
GPGPU-Sim uArch: core:  9, cta: 3 initialized @(2020,0)
GPGPU-Sim uArch: core: 12, cta: 0 initialized @(2020,0)
GPGPU-Sim uArch: core: 12, cta: 1 initialized @(2021,0)
GPGPU-Sim uArch: Shader 7 finished CTA #0 (2027,0), 5 CTAs running
GPGPU-Sim uArch: core:  7, cta: 0 initialized @(2028,0)
GPGPU-Sim uArch: Shader 11 finished CTA #3 (2031,0), 5 CTAs running
GPGPU-Sim uArch: core: 11, cta: 3 initialized @(2032,0)
GPGPU-Sim uArch: Shader 14 finished CTA #4 (2032,0), 5 CTAs running
GPGPU-Sim uArch: core: 14, cta: 4 initialized @(2033,0)
GPGPU-Sim uArch: Shader 12 finished CTA #5 (2039,0), 5 CTAs running
GPGPU-Sim uArch: core: 12, cta: 5 initialized @(2040,0)
GPGPU-Sim uArch: Shader 8 finished CTA #2 (2044,0), 5 CTAs running
GPGPU-Sim uArch: core:  8, cta: 2 initialized @(2045,0)
GPGPU-Sim uArch: Shader 12 finished CTA #2 (2055,0), 5 CTAs running
GPGPU-Sim uArch: core: 12, cta: 2 initialized @(2056,0)
GPGPU-Sim uArch: Shader 7 finished CTA #5 (2059,0), 5 CTAs running
GPGPU-Sim uArch: Shader 13 finished CTA #5 (2059,0), 5 CTAs running
GPGPU-Sim uArch: core: 13, cta: 5 initialized @(2060,0)
GPGPU-Sim uArch: core:  7, cta: 5 initialized @(2060,0)
GPGPU-Sim uArch: Shader 5 finished CTA #3 (2061,0), 5 CTAs running
GPGPU-Sim uArch: core:  5, cta: 3 initialized @(2062,0)
GPGPU-Sim PTX: 800000 instructions simulated : ctaid=(198,0,0) tid=(75,0,0)
GPGPU-Sim uArch: Shader 13 finished CTA #2 (2075,0), 5 CTAs running
GPGPU-Sim uArch: Shader 13 finished CTA #3 (2075,0), 4 CTAs running
GPGPU-Sim uArch: core: 13, cta: 2 initialized @(2076,0)
GPGPU-Sim uArch: core: 13, cta: 3 initialized @(2077,0)
GPGPU-Sim uArch: Shader 8 finished CTA #3 (2077,0), 5 CTAs running
GPGPU-Sim uArch: core:  8, cta: 3 initialized @(2078,0)
GPGPU-Sim uArch: Shader 11 finished CTA #0 (2085,0), 5 CTAs running
GPGPU-Sim uArch: core: 11, cta: 0 initialized @(2086,0)
GPGPU-Sim uArch: Shader 7 finished CTA #4 (2091,0), 5 CTAs running
GPGPU-Sim uArch: Shader 14 finished CTA #2 (2091,0), 5 CTAs running
GPGPU-Sim uArch: Shader 14 finished CTA #3 (2091,0), 4 CTAs running
GPGPU-Sim uArch: core: 14, cta: 2 initialized @(2092,0)
GPGPU-Sim uArch: Shader 14 finished CTA #5 (2099,0), 4 CTAs running
GPGPU-Sim uArch: Shader 11 finished CTA #4 (2101,0), 5 CTAs running
GPGPU-Sim uArch: Shader 14 finished CTA #1 (2107,0), 3 CTAs running
GPGPU-Sim uArch: Shader 8 finished CTA #5 (2109,0), 5 CTAs running
GPGPU-Sim uArch: Shader 7 finished CTA #2 (2115,0), 4 CTAs running
GPGPU-Sim uArch: Shader 9 finished CTA #2 (2126,0), 5 CTAs running
GPGPU-Sim uArch: Shader 11 finished CTA #5 (2127,0), 4 CTAs running
GPGPU-Sim uArch: Shader 9 finished CTA #4 (2134,0), 4 CTAs running
GPGPU-Sim uArch: Shader 9 finished CTA #5 (2134,0), 3 CTAs running
GPGPU-Sim uArch: Shader 10 finished CTA #5 (2145,0), 5 CTAs running
GPGPU-Sim PTX: 900000 instructions simulated : ctaid=(228,0,0) tid=(75,0,0)
GPGPU-Sim uArch: Shader 1 finished CTA #5 (2211,0), 5 CTAs running
GPGPU-Sim uArch: Shader 3 finished CTA #0 (2230,0), 5 CTAs running
GPGPU-Sim uArch: Shader 2 finished CTA #0 (2240,0), 5 CTAs running
GPGPU-Sim uArch: Shader 8 finished CTA #4 (2245,0), 4 CTAs running
GPGPU-Sim uArch: Shader 4 finished CTA #0 (2249,0), 5 CTAs running
GPGPU-Sim uArch: Shader 10 finished CTA #2 (2271,0), 4 CTAs running
GPGPU-Sim uArch: Shader 11 finished CTA #1 (2275,0), 3 CTAs running
GPGPU-Sim uArch: Shader 0 finished CTA #2 (2280,0), 5 CTAs running
GPGPU-Sim uArch: Shader 5 finished CTA #0 (2293,0), 5 CTAs running
GPGPU-Sim uArch: Shader 6 finished CTA #4 (2305,0), 5 CTAs running
GPGPU-Sim uArch: Shader 8 finished CTA #1 (2306,0), 3 CTAs running
GPGPU-Sim uArch: Shader 2 finished CTA #2 (2312,0), 4 CTAs running
GPGPU-Sim uArch: Shader 1 finished CTA #3 (2324,0), 4 CTAs running
GPGPU-Sim uArch: Shader 1 finished CTA #1 (2349,0), 3 CTAs running
GPGPU-Sim uArch: Shader 12 finished CTA #3 (2357,0), 5 CTAs running
GPGPU-Sim uArch: Shader 2 finished CTA #3 (2362,0), 3 CTAs running
GPGPU-Sim uArch: Shader 4 finished CTA #5 (2362,0), 4 CTAs running
GPGPU-Sim uArch: Shader 1 finished CTA #2 (2369,0), 2 CTAs running
GPGPU-Sim uArch: Shader 3 finished CTA #3 (2370,0), 4 CTAs running
GPGPU-Sim uArch: Shader 3 finished CTA #2 (2371,0), 3 CTAs running
GPGPU-Sim uArch: Shader 13 finished CTA #0 (2388,0), 5 CTAs running
GPGPU-Sim uArch: Shader 8 finished CTA #0 (2390,0), 2 CTAs running
GPGPU-Sim uArch: Shader 14 finished CTA #0 (2400,0), 2 CTAs running
GPGPU-Sim uArch: Shader 5 finished CTA #5 (2409,0), 4 CTAs running
GPGPU-Sim uArch: Shader 3 finished CTA #4 (2411,0), 2 CTAs running
GPGPU-Sim uArch: Shader 1 finished CTA #4 (2422,0), 1 CTAs running
GPGPU-Sim uArch: Shader 0 finished CTA #3 (2425,0), 4 CTAs running
GPGPU-Sim uArch: Shader 2 finished CTA #4 (2427,0), 2 CTAs running
GPGPU-Sim uArch: Shader 11 finished CTA #2 (2428,0), 2 CTAs running
GPGPU-Sim uArch: Shader 5 finished CTA #4 (2442,0), 3 CTAs running
GPGPU-Sim uArch: Shader 4 finished CTA #1 (2444,0), 3 CTAs running
GPGPU-Sim uArch: Shader 13 finished CTA #1 (2447,0), 4 CTAs running
GPGPU-Sim uArch: Shader 10 finished CTA #0 (2458,0), 3 CTAs running
GPGPU-Sim uArch: Shader 6 finished CTA #3 (2460,0), 4 CTAs running
GPGPU-Sim uArch: Shader 0 finished CTA #4 (2465,0), 3 CTAs running
GPGPU-Sim uArch: Shader 2 finished CTA #1 (2466,0), 1 CTAs running
GPGPU-Sim uArch: Shader 3 finished CTA #1 (2471,0), 1 CTAs running
GPGPU-Sim uArch: Shader 0 finished CTA #5 (2474,0), 2 CTAs running
GPGPU-Sim uArch: Shader 4 finished CTA #4 (2476,0), 2 CTAs running
GPGPU-Sim uArch: Shader 9 finished CTA #1 (2483,0), 2 CTAs running
GPGPU-Sim uArch: Shader 3 finished CTA #5 (2489,0), 0 CTAs running
GPGPU-Sim uArch: Shader 3 empty (release kernel 1 '_Z6KernelP4NodePiPbS2_S1_S2_i').
GPGPU-Sim uArch: Shader 6 finished CTA #1 (2491,0), 3 CTAs running
GPGPU-Sim uArch: Shader 2 finished CTA #5 (2493,0), 0 CTAs running
GPGPU-Sim uArch: Shader 2 empty (release kernel 1 '_Z6KernelP4NodePiPbS2_S1_S2_i').
GPGPU-Sim uArch: Shader 0 finished CTA #0 (2494,0), 1 CTAs running
GPGPU-Sim uArch: Shader 6 finished CTA #0 (2495,0), 2 CTAs running
GPGPU-Sim uArch: Shader 14 finished CTA #4 (2496,0), 1 CTAs running
GPGPU-Sim uArch: cycles simulated: 2500  inst.: 892693 (ipc=357.1) sim_rate=297564 (inst/sec) elapsed = 0:0:00:03 / Wed May  1 12:43:16 2019
GPGPU-Sim uArch: Shader 4 finished CTA #2 (2502,0), 1 CTAs running
GPGPU-Sim uArch: Shader 9 finished CTA #0 (2508,0), 1 CTAs running
GPGPU-Sim uArch: Shader 8 finished CTA #3 (2513,0), 1 CTAs running
GPGPU-Sim uArch: Shader 7 finished CTA #1 (2514,0), 3 CTAs running
GPGPU-Sim uArch: Shader 9 finished CTA #3 (2516,0), 0 CTAs running
GPGPU-Sim uArch: Shader 9 empty (release kernel 1 '_Z6KernelP4NodePiPbS2_S1_S2_i').
GPGPU-Sim uArch: Shader 8 finished CTA #2 (2520,0), 0 CTAs running
GPGPU-Sim uArch: Shader 8 empty (release kernel 1 '_Z6KernelP4NodePiPbS2_S1_S2_i').
GPGPU-Sim uArch: Shader 6 finished CTA #2 (2524,0), 1 CTAs running
GPGPU-Sim uArch: Shader 12 finished CTA #4 (2526,0), 4 CTAs running
GPGPU-Sim uArch: Shader 10 finished CTA #1 (2527,0), 2 CTAs running
GPGPU-Sim uArch: Shader 10 finished CTA #3 (2529,0), 1 CTAs running
GPGPU-Sim uArch: Shader 4 finished CTA #3 (2540,0), 0 CTAs running
GPGPU-Sim uArch: Shader 4 empty (release kernel 1 '_Z6KernelP4NodePiPbS2_S1_S2_i').
GPGPU-Sim uArch: Shader 5 finished CTA #1 (2548,0), 2 CTAs running
GPGPU-Sim uArch: Shader 13 finished CTA #4 (2548,0), 3 CTAs running
GPGPU-Sim uArch: Shader 7 finished CTA #3 (2549,0), 2 CTAs running
GPGPU-Sim uArch: Shader 7 finished CTA #5 (2549,0), 1 CTAs running
GPGPU-Sim uArch: Shader 6 finished CTA #5 (2555,0), 0 CTAs running
GPGPU-Sim uArch: Shader 6 empty (release kernel 1 '_Z6KernelP4NodePiPbS2_S1_S2_i').
GPGPU-Sim uArch: Shader 7 finished CTA #0 (2560,0), 0 CTAs running
GPGPU-Sim uArch: Shader 7 empty (release kernel 1 '_Z6KernelP4NodePiPbS2_S1_S2_i').
GPGPU-Sim uArch: Shader 11 finished CTA #0 (2561,0), 1 CTAs running
GPGPU-Sim uArch: Shader 5 finished CTA #3 (2562,0), 1 CTAs running
GPGPU-Sim uArch: Shader 12 finished CTA #1 (2563,0), 3 CTAs running
GPGPU-Sim uArch: Shader 11 finished CTA #3 (2570,0), 0 CTAs running
GPGPU-Sim uArch: Shader 11 empty (release kernel 1 '_Z6KernelP4NodePiPbS2_S1_S2_i').
GPGPU-Sim uArch: Shader 12 finished CTA #0 (2571,0), 2 CTAs running
GPGPU-Sim uArch: Shader 5 finished CTA #2 (2573,0), 0 CTAs running
GPGPU-Sim uArch: Shader 5 empty (release kernel 1 '_Z6KernelP4NodePiPbS2_S1_S2_i').
GPGPU-Sim uArch: Shader 12 finished CTA #5 (2579,0), 1 CTAs running
GPGPU-Sim uArch: Shader 0 finished CTA #1 (2586,0), 0 CTAs running
GPGPU-Sim uArch: Shader 0 empty (release kernel 1 '_Z6KernelP4NodePiPbS2_S1_S2_i').
GPGPU-Sim uArch: Shader 10 finished CTA #4 (2592,0), 0 CTAs running
GPGPU-Sim uArch: Shader 10 empty (release kernel 1 '_Z6KernelP4NodePiPbS2_S1_S2_i').
GPGPU-Sim uArch: Shader 14 finished CTA #2 (2600,0), 0 CTAs running
GPGPU-Sim uArch: Shader 14 empty (release kernel 1 '_Z6KernelP4NodePiPbS2_S1_S2_i').
GPGPU-Sim uArch: Shader 13 finished CTA #5 (2601,0), 2 CTAs running
GPGPU-Sim uArch: Shader 13 finished CTA #2 (2601,0), 1 CTAs running
GPGPU-Sim uArch: Shader 13 finished CTA #3 (2616,0), 0 CTAs running
GPGPU-Sim uArch: Shader 13 empty (release kernel 1 '_Z6KernelP4NodePiPbS2_S1_S2_i').
GPGPU-Sim uArch: Shader 12 finished CTA #2 (2627,0), 0 CTAs running
GPGPU-Sim uArch: Shader 12 empty (release kernel 1 '_Z6KernelP4NodePiPbS2_S1_S2_i').
GPGPU-Sim uArch: Shader 1 finished CTA #0 (6039,0), 0 CTAs running
GPGPU-Sim uArch: Shader 1 empty (release kernel 1 '_Z6KernelP4NodePiPbS2_S1_S2_i').
GPGPU-Sim uArch: GPU detected kernel '_Z6KernelP4NodePiPbS2_S1_S2_i' finished on shader 1.
kernel_name = _Z6KernelP4NodePiPbS2_S1_S2_i 
kernel_launch_uid = 1 
gpu_sim_cycle = 6040
gpu_sim_insn = 917736
gpu_ipc =     151.9430
gpu_tot_sim_cycle = 6040
gpu_tot_sim_insn = 917736
gpu_tot_ipc =     151.9430
gpu_tot_issued_cta = 0
gpu_stall_dramfull = 281
gpu_stall_icnt2sh    = 148
gpu_total_sim_rate=305912

========= Core cache stats =========
L1I_cache:
	L1I_total_cache_accesses = 19521
	L1I_total_cache_misses = 962
	L1I_total_cache_miss_rate = 0.0493
	L1I_total_cache_pending_hits = 0
	L1I_total_cache_reservation_fails = 5633
L1D_cache:
	L1D_cache_core[0]: Access = 144, Miss = 36, Miss_rate = 0.250, Pending_hits = 108, Reservation_fails = 0
	L1D_cache_core[1]: Access = 196, Miss = 68, Miss_rate = 0.347, Pending_hits = 96, Reservation_fails = 0
	L1D_cache_core[2]: Access = 144, Miss = 36, Miss_rate = 0.250, Pending_hits = 108, Reservation_fails = 0
	L1D_cache_core[3]: Access = 144, Miss = 36, Miss_rate = 0.250, Pending_hits = 108, Reservation_fails = 0
	L1D_cache_core[4]: Access = 144, Miss = 36, Miss_rate = 0.250, Pending_hits = 108, Reservation_fails = 0
	L1D_cache_core[5]: Access = 144, Miss = 36, Miss_rate = 0.250, Pending_hits = 108, Reservation_fails = 0
	L1D_cache_core[6]: Access = 144, Miss = 36, Miss_rate = 0.250, Pending_hits = 108, Reservation_fails = 0
	L1D_cache_core[7]: Access = 128, Miss = 32, Miss_rate = 0.250, Pending_hits = 96, Reservation_fails = 0
	L1D_cache_core[8]: Access = 136, Miss = 34, Miss_rate = 0.250, Pending_hits = 102, Reservation_fails = 0
	L1D_cache_core[9]: Access = 120, Miss = 30, Miss_rate = 0.250, Pending_hits = 90, Reservation_fails = 0
	L1D_cache_core[10]: Access = 136, Miss = 34, Miss_rate = 0.250, Pending_hits = 102, Reservation_fails = 0
	L1D_cache_core[11]: Access = 128, Miss = 32, Miss_rate = 0.250, Pending_hits = 96, Reservation_fails = 0
	L1D_cache_core[12]: Access = 144, Miss = 36, Miss_rate = 0.250, Pending_hits = 108, Reservation_fails = 0
	L1D_cache_core[13]: Access = 144, Miss = 36, Miss_rate = 0.250, Pending_hits = 108, Reservation_fails = 0
	L1D_cache_core[14]: Access = 120, Miss = 30, Miss_rate = 0.250, Pending_hits = 90, Reservation_fails = 0
	L1D_total_cache_accesses = 2116
	L1D_total_cache_misses = 548
	L1D_total_cache_miss_rate = 0.2590
	L1D_total_cache_pending_hits = 1536
	L1D_total_cache_reservation_fails = 0
	L1D_cache_data_port_util = 0.001
	L1D_cache_fill_port_util = 0.012
L1C_cache:
	L1C_total_cache_accesses = 4115
	L1C_total_cache_misses = 480
	L1C_total_cache_miss_rate = 0.1166
	L1C_total_cache_pending_hits = 0
	L1C_total_cache_reservation_fails = 3390
L1T_cache:
	L1T_total_cache_accesses = 0
	L1T_total_cache_misses = 0
	L1T_total_cache_pending_hits = 0
	L1T_total_cache_reservation_fails = 0

Total_core_cache_stats:
	Total_core_cache_stats_breakdown[GLOBAL_ACC_R][HIT] = 31
	Total_core_cache_stats_breakdown[GLOBAL_ACC_R][HIT_RESERVED] = 1536
	Total_core_cache_stats_breakdown[GLOBAL_ACC_R][MISS] = 523
	Total_core_cache_stats_breakdown[CONST_ACC_R][HIT] = 3635
	Total_core_cache_stats_breakdown[CONST_ACC_R][MISS] = 480
	Total_core_cache_stats_breakdown[CONST_ACC_R][RESERVATION_FAIL] = 3390
	Total_core_cache_stats_breakdown[GLOBAL_ACC_W][HIT] = 1
	Total_core_cache_stats_breakdown[GLOBAL_ACC_W][MISS] = 25
	Total_core_cache_stats_breakdown[INST_ACC_R][HIT] = 18559
	Total_core_cache_stats_breakdown[INST_ACC_R][MISS] = 962
	Total_core_cache_stats_breakdown[INST_ACC_R][RESERVATION_FAIL] = 5633
Shader 0 warp_id issue ditsribution:
warp_id:
0, 1, 2, 3, 4, 5, 6, 7, 8, 9, 10, 11, 12, 13, 14, 15, 16, 17, 18, 19, 20, 21, 22, 23, 24, 25, 26, 27, 28, 29, 30, 31, 32, 33, 34, 35, 36, 37, 38, 39, 40, 41, 42, 43, 44, 45, 46, 47, 
distro:
45, 45, 45, 45, 45, 45, 45, 45, 45, 45, 45, 45, 45, 45, 45, 45, 45, 45, 45, 45, 45, 45, 45, 45, 45, 45, 45, 45, 45, 45, 45, 45, 45, 45, 45, 45, 45, 45, 45, 45, 45, 45, 45, 45, 45, 45, 45, 45, 
gpgpu_n_tot_thrd_icount = 990816
gpgpu_n_tot_w_icount = 30963
gpgpu_n_stall_shd_mem = 3390
gpgpu_n_mem_read_local = 0
gpgpu_n_mem_write_local = 0
gpgpu_n_mem_read_global = 523
gpgpu_n_mem_write_global = 26
gpgpu_n_mem_texture = 0
gpgpu_n_mem_const = 15
gpgpu_n_load_insn  = 65578
gpgpu_n_store_insn = 26
gpgpu_n_shmem_insn = 0
gpgpu_n_tex_insn = 0
gpgpu_n_const_mem_insn = 0
gpgpu_n_param_mem_insn = 131091
gpgpu_n_shmem_bkconflict = 0
gpgpu_n_cache_bkconflict = 0
gpgpu_n_intrawarp_mshr_merge = 0
gpgpu_n_cmem_portconflict = 3390
gpgpu_stall_shd_mem[c_mem][bk_conf] = 3390
gpgpu_stall_shd_mem[c_mem][mshr_rc] = 0
gpgpu_stall_shd_mem[c_mem][icnt_rc] = 0
gpgpu_stall_shd_mem[c_mem][data_port_stall] = 0
gpgpu_stall_shd_mem[t_mem][mshr_rc] = 0
gpgpu_stall_shd_mem[t_mem][icnt_rc] = 0
gpgpu_stall_shd_mem[t_mem][data_port_stall] = 0
gpgpu_stall_shd_mem[s_mem][bk_conf] = 0
gpgpu_stall_shd_mem[gl_mem][bk_conf] = 0
gpgpu_stall_shd_mem[gl_mem][coal_stall] = 0
gpgpu_stall_shd_mem[gl_mem][data_port_stall] = 0
gpgpu_stall_shd_mem[g_mem_ld][mshr_rc] = 0
gpgpu_stall_shd_mem[g_mem_ld][icnt_rc] = 0
gpgpu_stall_shd_mem[g_mem_ld][wb_icnt_rc] = 0
gpgpu_stall_shd_mem[g_mem_ld][wb_rsrv_fail] = 0
gpgpu_stall_shd_mem[g_mem_st][mshr_rc] = 0
gpgpu_stall_shd_mem[g_mem_st][icnt_rc] = 0
gpgpu_stall_shd_mem[g_mem_st][wb_icnt_rc] = 0
gpgpu_stall_shd_mem[g_mem_st][wb_rsrv_fail] = 0
gpgpu_stall_shd_mem[l_mem_ld][mshr_rc] = 0
gpgpu_stall_shd_mem[l_mem_ld][icnt_rc] = 0
gpgpu_stall_shd_mem[l_mem_ld][wb_icnt_rc] = 0
gpgpu_stall_shd_mem[l_mem_ld][wb_rsrv_fail] = 0
gpgpu_stall_shd_mem[l_mem_st][mshr_rc] = 0
gpgpu_stall_shd_mem[l_mem_st][icnt_rc] = 0
gpgpu_stall_shd_mem[l_mem_ld][wb_icnt_rc] = 0
gpgpu_stall_shd_mem[l_mem_ld][wb_rsrv_fail] = 0
gpu_reg_bank_conflict_stalls = 0
Warp Occupancy Distribution:
Stall:7239	W0_Idle:16083	W0_Scoreboard:29497	W1:243	W2:0	W3:0	W4:0	W5:0	W6:0	W7:0	W8:0	W9:0	W10:0	W11:0	W12:0	W13:0	W14:0	W15:0	W16:0	W17:0	W18:0	W19:0	W20:0	W21:0	W22:0	W23:0	W24:0	W25:0	W26:0	W27:0	W28:0	W29:0	W30:0	W31:0	W32:30720
traffic_breakdown_coretomem[CONST_ACC_R] = 120 {8:15,}
traffic_breakdown_coretomem[GLOBAL_ACC_R] = 4184 {8:523,}
traffic_breakdown_coretomem[GLOBAL_ACC_W] = 1040 {40:26,}
traffic_breakdown_coretomem[INST_ACC_R] = 256 {8:32,}
traffic_breakdown_memtocore[CONST_ACC_R] = 1080 {72:15,}
traffic_breakdown_memtocore[GLOBAL_ACC_R] = 71128 {136:523,}
traffic_breakdown_memtocore[GLOBAL_ACC_W] = 208 {8:26,}
traffic_breakdown_memtocore[INST_ACC_R] = 4352 {136:32,}
maxmrqlatency = 165 
maxdqlatency = 0 
maxmflatency = 449 
averagemflatency = 301 
max_icnt2mem_latency = 36 
max_icnt2sh_latency = 6039 
mrq_lat_table:164 	19 	80 	64 	56 	26 	86 	53 	0 	0 	0 	0 	0 	0 	0 	0 	0 	0 	0 	0 	0 	0 	0 	0 	0 	0 	0 	0 	0 	0 	0 	0 	
dq_lat_table:0 	0 	0 	0 	0 	0 	0 	0 	0 	0 	0 	0 	0 	0 	0 	0 	0 	0 	0 	0 	0 	0 	0 	0 	0 	0 	0 	0 	0 	0 	0 	0 	
mf_lat_table:0 	0 	0 	0 	0 	0 	0 	30 	534 	0 	0 	0 	0 	0 	0 	0 	0 	0 	0 	0 	0 	0 	0 	0 	0 	0 	0 	0 	0 	0 	0 	0 	
icnt2mem_lat_table:0 	0 	0 	585 	8 	3 	0 	0 	0 	0 	0 	0 	0 	0 	0 	0 	0 	0 	0 	0 	0 	0 	0 	0 	
icnt2sh_lat_table:0 	0 	0 	464 	74 	0 	0 	0 	0 	0 	2 	9 	15 	0 	0 	0 	0 	0 	0 	0 	0 	0 	0 	0 	
mf_lat_pw_table:0 	0 	0 	0 	0 	0 	0 	6 	5 	0 	0 	0 	0 	0 	0 	0 	0 	0 	0 	0 	0 	0 	0 	0 	0 	0 	0 	0 	0 	0 	0 	0 	
maximum concurrent accesses to same row:
dram[0]:         1         0         0         0         0         0         0         0         0         0         0         0         0         0         0         0 
dram[1]:         0         0         0         0         0         0         0         0         0         0         0         0         0         0         0         0 
dram[2]:         0         0         0         0         0         0         0         0         0         0         0         0         0         0         0         0 
dram[3]:         0         0         0         0         0         0         0         0         0         0         0         0         0         0         0         0 
dram[4]:         0         0         0         0         0         0         0         0         0         0        22        22         0         0         0         0 
dram[5]:         0         0         0         0         0         0         0         0         0         0         0         0         0         0         0         0 
maximum service time to same row:
dram[0]:      1641         0      6021         0         0         0         0         0         0         0       954       926      1822      1776         0         0 
dram[1]:      1203         0         0         0         0         0         0         0         0         0       956       921      1781      1774         0      4059 
dram[2]:         0         0         0      3174         0      1631         0         0         0      4399       965       934      1790      1574         0         0 
dram[3]:         0         0         0      5204         0      4802         0         0         0         0       969       946      1769      1784         0         0 
dram[4]:         0      3985         0         0         0      5607         0         0         0         0      1299      2645      1778      1801      3244         0 
dram[5]:         0         0         0         0         0         0         0         0         0         0       919       949      1782      1800      5681         0 
average row accesses per activate:
dram[0]:  1.000000      -nan  2.000000      -nan      -nan      -nan      -nan      -nan      -nan      -nan 20.000000 22.000000 22.000000 22.000000      -nan      -nan 
dram[1]:  2.000000      -nan      -nan      -nan      -nan      -nan      -nan      -nan      -nan      -nan 20.000000 22.000000 24.000000 22.000000      -nan  3.000000 
dram[2]:      -nan      -nan      -nan  2.000000      -nan  1.000000      -nan      -nan      -nan  2.000000 20.000000 22.000000 22.000000 22.000000      -nan      -nan 
dram[3]:      -nan      -nan      -nan  2.000000      -nan  2.000000      -nan      -nan      -nan      -nan 20.000000 22.000000 22.000000 20.000000      -nan      -nan 
dram[4]:      -nan  2.000000      -nan      -nan      -nan  2.000000      -nan      -nan      -nan      -nan  8.333333 12.000000 22.000000 20.000000  2.000000      -nan 
dram[5]:      -nan      -nan      -nan      -nan      -nan      -nan      -nan      -nan      -nan      -nan 22.000000 22.000000 22.000000 20.000000  1.000000      -nan 
average row locality = 548/43 = 12.744186
number of total memory accesses made:
dram[0]:         0         0         0         0         0         0         0         0         0         0         0         0         0         0         0         0 
dram[1]:         0         0         0         0         0         0         0         0         0         0         0         0         0         0         0         0 
dram[2]:         0         0         0         0         0         0         0         0         0         0         0         0         0         0         0         0 
dram[3]:         0         0         0         0         0         0         0         0         0         0         0         0         0         0         0         0 
dram[4]:         0         0         0         0         0         0         0         0         0         0         0         0         0         0         0         0 
dram[5]:         0         0         0         0         0         0         0         0         0         0         0         0         0         0         0         0 
total accesses: 0
min_bank_accesses = 0!
min_chip_accesses = 0!
number of total read accesses:
dram[0]:         4         0         1         0         0         0         0         0         0         0        20        22        22        22         0         0 
dram[1]:         2         0         0         0         0         0         0         0         0         0        20        22        24        22         0         3 
dram[2]:         0         0         0         1         0         1         0         0         0         1        20        22        22        21         0         0 
dram[3]:         0         0         0         1         0         1         0         0         0         0        20        22        22        20         0         0 
dram[4]:         0         1         0         0         0         1         0         0         0         0        24        23        22        20         2         0 
dram[5]:         0         0         0         0         0         0         0         0         0         0        22        22        22        20         1         0 
total reads: 538
min_bank_accesses = 0!
chip skew: 93/86 = 1.08
number of total write accesses:
dram[0]:         0         0         1         0         0         0         0         0         0         0         0         0         0         0         0         0 
dram[1]:         0         0         0         0         0         0         0         0         0         0         0         0         0         0         0         0 
dram[2]:         0         0         0         1         0         0         0         0         0         1         0         0         0         1         0         0 
dram[3]:         0         0         0         1         0         1         0         0         0         0         0         0         0         0         0         0 
dram[4]:         0         1         0         0         0         1         0         0         0         0         1         1         0         0         0         0 
dram[5]:         0         0         0         0         0         0         0         0         0         0         0         0         0         0         0         0 
total reads: 10
min_bank_accesses = 0!
min_chip_accesses = 0!
average mf latency per bank:
dram[0]:       1052    none         126    none      none      none      none      none      none      none         278       346       281       326    none      none  
dram[1]:          0    none      none      none      none      none      none      none      none      none         281       348       283       343    none         266
dram[2]:     none      none      none         126    none         273    none      none      none         126       278       328       279       311    none      none  
dram[3]:     none      none      none         125    none         126    none      none      none      none         287       366       302       326    none      none  
dram[4]:     none         125    none      none      none         125    none      none      none      none         308       332       289       320       267    none  
dram[5]:     none      none      none      none      none      none      none      none      none      none         273       346       296       320       273    none  
maximum mf latency per bank:
dram[0]:        282         0       252         0         0         0         0         0         0         0       301       416       287       449         0         0
dram[1]:          0         0         0         0         0         0         0         0         0         0       291       392       350       420         0       273
dram[2]:          0         0         0       252         0       273         0         0         0       252       302       388       334       409         0         0
dram[3]:          0         0         0       251         0       252         0         0         0         0       301       417       346       407         0         0
dram[4]:          0       251         0         0         0       251         0         0         0         0       306       406       362       415       272         0
dram[5]:          0         0         0         0         0         0         0         0         0         0       287       408       357       411       273         0

Number of Memory Banks Accessed per Memory Operation per Warp (from 0):
0	0	0	0	0	0	0	0	0	0	0	0	0	0	0	0	0	0	0	0	0	0	0	0	0	0	0	0	0	0	0	0	0	0	0	0	0	0	0	0	0	0	0	0	0	0	0	0	0	0	0	0	0	0	0	0	0	0	0	0	0	0	0	0	0	0	0	0	0	0	0	0	0	0	0	0	0	0	0	0	0	0	0	0	0	0	0	0	0	0	0	0	0	0	0	0	
Average # of Memory Banks Accessed per Memory Operation per Warp=-nan

position of mrq chosen
0	0	0	0	0	0	0	0	0	0	0	0	0	0	0	0	

average position of mrq chosen = -nan
Memory Partition 0: 
Cache L2_bank_000:
MSHR contents
MSHR: tag=0x80234400, atomic=0 1 entries : 0x7fef18116330 :  mf: uid= 34785, sid01:w00, part=0, addr=0x80234440, load , size=32, unknown  status = IN_PARTITION_DRAM (6039), 

Cache L2_bank_001:
MSHR contents

In Dram Latency Queue (total = 0): 
DRAM[0]: 16 bks, busW=2 BL=8 CL=12, tRRD=2 tCCD=6, tRCD=12 tRAS=28 tRP=12 tRC=40
n_cmd=7972 n_nop=7596 n_act=9 n_pre=3 n_req=92 n_rd=363 n_write=1 bw_util=0.09132
n_activity=1339 dram_eff=0.5437
bk0: 16a 7845i bk1: 0a 7966i bk2: 3a 7943i bk3: 0a 7968i bk4: 0a 7970i bk5: 0a 7970i bk6: 0a 7973i bk7: 0a 7974i bk8: 0a 7975i bk9: 0a 7976i bk10: 80a 7728i bk11: 88a 7468i bk12: 88a 7702i bk13: 88a 7487i bk14: 0a 7970i bk15: 0a 7971i 
dram_util_bins: 0 0 0 0 0 0 0 0 0 0
dram_eff_bins: 0 0 0 0 0 0 0 0 0 0
mrqq: max=11 avg=0.500502
Memory Partition 1: 
Cache L2_bank_002:
MSHR contents

Cache L2_bank_003:
MSHR contents

In Dram Latency Queue (total = 0): 
DRAM[1]: 16 bks, busW=2 BL=8 CL=12, tRRD=2 tCCD=6, tRCD=12 tRAS=28 tRP=12 tRC=40
n_cmd=7972 n_nop=7594 n_act=6 n_pre=0 n_req=93 n_rd=372 n_write=0 bw_util=0.09333
n_activity=1266 dram_eff=0.5877
bk0: 8a 7931i bk1: 0a 7970i bk2: 0a 7970i bk3: 0a 7970i bk4: 0a 7970i bk5: 0a 7971i bk6: 0a 7971i bk7: 0a 7974i bk8: 0a 7975i bk9: 0a 7975i bk10: 80a 7704i bk11: 88a 7451i bk12: 96a 7570i bk13: 88a 7365i bk14: 0a 7970i bk15: 12a 7928i 
dram_util_bins: 0 0 0 0 0 0 0 0 0 0
dram_eff_bins: 0 0 0 0 0 0 0 0 0 0
mrqq: max=11 avg=0.583292
Memory Partition 2: 
Cache L2_bank_004:
MSHR contents

Cache L2_bank_005:
MSHR contents

In Dram Latency Queue (total = 0): 
DRAM[2]: 16 bks, busW=2 BL=8 CL=12, tRRD=2 tCCD=6, tRCD=12 tRAS=28 tRP=12 tRC=40
n_cmd=7972 n_nop=7610 n_act=7 n_pre=0 n_req=91 n_rd=352 n_write=3 bw_util=0.08906
n_activity=1253 dram_eff=0.5666
bk0: 0a 7972i bk1: 0a 7973i bk2: 0a 7973i bk3: 4a 7944i bk4: 0a 7971i bk5: 4a 7948i bk6: 0a 7972i bk7: 0a 7974i bk8: 0a 7974i bk9: 4a 7945i bk10: 80a 7707i bk11: 88a 7514i bk12: 88a 7637i bk13: 84a 7429i bk14: 0a 7970i bk15: 0a 7971i 
dram_util_bins: 0 0 0 0 0 0 0 0 0 0
dram_eff_bins: 0 0 0 0 0 0 0 0 0 0
mrqq: max=10 avg=0.469017
Memory Partition 3: 
Cache L2_bank_006:
MSHR contents

Cache L2_bank_007:
MSHR contents

In Dram Latency Queue (total = 0): 
DRAM[3]: 16 bks, busW=2 BL=8 CL=12, tRRD=2 tCCD=6, tRCD=12 tRAS=28 tRP=12 tRC=40
n_cmd=7972 n_nop=7620 n_act=6 n_pre=0 n_req=88 n_rd=344 n_write=2 bw_util=0.0868
n_activity=1195 dram_eff=0.5791
bk0: 0a 7973i bk1: 0a 7974i bk2: 0a 7974i bk3: 4a 7945i bk4: 0a 7972i bk5: 4a 7943i bk6: 0a 7970i bk7: 0a 7971i bk8: 0a 7973i bk9: 0a 7973i bk10: 80a 7724i bk11: 88a 7500i bk12: 88a 7611i bk13: 80a 7462i bk14: 0a 7970i bk15: 0a 7970i 
dram_util_bins: 0 0 0 0 0 0 0 0 0 0
dram_eff_bins: 0 0 0 0 0 0 0 0 0 0
mrqq: max=13 avg=0.578901
Memory Partition 4: 
Cache L2_bank_008:
MSHR contents

Cache L2_bank_009:
MSHR contents

In Dram Latency Queue (total = 0): 
DRAM[4]: 16 bks, busW=2 BL=8 CL=12, tRRD=2 tCCD=6, tRCD=12 tRAS=28 tRP=12 tRC=40
n_cmd=7972 n_nop=7583 n_act=10 n_pre=3 n_req=97 n_rd=372 n_write=4 bw_util=0.09433
n_activity=1390 dram_eff=0.541
bk0: 0a 7968i bk1: 4a 7942i bk2: 0a 7971i bk3: 0a 7971i bk4: 0a 7973i bk5: 4a 7946i bk6: 0a 7974i bk7: 0a 7975i bk8: 0a 7976i bk9: 0a 7977i bk10: 96a 7596i bk11: 92a 7416i bk12: 88a 7590i bk13: 80a 7486i bk14: 8a 7935i bk15: 0a 7967i 
dram_util_bins: 0 0 0 0 0 0 0 0 0 0
dram_eff_bins: 0 0 0 0 0 0 0 0 0 0
mrqq: max=11 avg=0.534747
Memory Partition 5: 
Cache L2_bank_010:
MSHR contents

Cache L2_bank_011:
MSHR contents

In Dram Latency Queue (total = 0): 
DRAM[5]: 16 bks, busW=2 BL=8 CL=12, tRRD=2 tCCD=6, tRCD=12 tRAS=28 tRP=12 tRC=40
n_cmd=7972 n_nop=7619 n_act=5 n_pre=0 n_req=87 n_rd=348 n_write=0 bw_util=0.08731
n_activity=1203 dram_eff=0.5786
bk0: 0a 7970i bk1: 0a 7971i bk2: 0a 7972i bk3: 0a 7972i bk4: 0a 7972i bk5: 0a 7973i bk6: 0a 7973i bk7: 0a 7973i bk8: 0a 7973i bk9: 0a 7973i bk10: 88a 7681i bk11: 88a 7463i bk12: 88a 7612i bk13: 80a 7498i bk14: 4a 7947i bk15: 0a 7969i 
dram_util_bins: 0 0 0 0 0 0 0 0 0 0
dram_eff_bins: 0 0 0 0 0 0 0 0 0 0
mrqq: max=12 avg=0.536001

========= L2 cache stats =========
L2_cache_bank[0]: Access = 77, Miss = 47, Miss_rate = 0.610, Pending_hits = 6, Reservation_fails = 231
L2_cache_bank[1]: Access = 44, Miss = 44, Miss_rate = 1.000, Pending_hits = 0, Reservation_fails = 0
L2_cache_bank[2]: Access = 61, Miss = 46, Miss_rate = 0.754, Pending_hits = 3, Reservation_fails = 112
L2_cache_bank[3]: Access = 47, Miss = 47, Miss_rate = 1.000, Pending_hits = 0, Reservation_fails = 0
L2_cache_bank[4]: Access = 42, Miss = 42, Miss_rate = 1.000, Pending_hits = 0, Reservation_fails = 0
L2_cache_bank[5]: Access = 46, Miss = 46, Miss_rate = 1.000, Pending_hits = 0, Reservation_fails = 0
L2_cache_bank[6]: Access = 45, Miss = 42, Miss_rate = 0.933, Pending_hits = 0, Reservation_fails = 0
L2_cache_bank[7]: Access = 46, Miss = 44, Miss_rate = 0.957, Pending_hits = 0, Reservation_fails = 0
L2_cache_bank[8]: Access = 56, Miss = 48, Miss_rate = 0.857, Pending_hits = 0, Reservation_fails = 0
L2_cache_bank[9]: Access = 45, Miss = 45, Miss_rate = 1.000, Pending_hits = 0, Reservation_fails = 0
L2_cache_bank[10]: Access = 45, Miss = 45, Miss_rate = 1.000, Pending_hits = 0, Reservation_fails = 0
L2_cache_bank[11]: Access = 42, Miss = 42, Miss_rate = 1.000, Pending_hits = 0, Reservation_fails = 0
L2_total_cache_accesses = 596
L2_total_cache_misses = 538
L2_total_cache_miss_rate = 0.9027
L2_total_cache_pending_hits = 9
L2_total_cache_reservation_fails = 343
L2_total_cache_breakdown:
	L2_cache_stats_breakdown[GLOBAL_ACC_R][MISS] = 523
	L2_cache_stats_breakdown[CONST_ACC_R][HIT] = 11
	L2_cache_stats_breakdown[CONST_ACC_R][HIT_RESERVED] = 3
	L2_cache_stats_breakdown[CONST_ACC_R][MISS] = 1
	L2_cache_stats_breakdown[CONST_ACC_R][RESERVATION_FAIL] = 111
	L2_cache_stats_breakdown[GLOBAL_ACC_W][HIT] = 16
	L2_cache_stats_breakdown[GLOBAL_ACC_W][MISS] = 10
	L2_cache_stats_breakdown[INST_ACC_R][HIT] = 22
	L2_cache_stats_breakdown[INST_ACC_R][HIT_RESERVED] = 6
	L2_cache_stats_breakdown[INST_ACC_R][MISS] = 4
	L2_cache_stats_breakdown[INST_ACC_R][RESERVATION_FAIL] = 232
L2_cache_data_port_util = 0.002
L2_cache_fill_port_util = 0.030

icnt_total_pkts_mem_to_simt=2846
icnt_total_pkts_simt_to_mem=622
LD_mem_lat_dist  0 0 0 0 0 0 0 0 0 0 0 0 0 0 0 0 0 0 0 0 0 0 0 0 0 0 0
ST_mem_lat_dist  0 0 0 0 0 0 0 0 0 0 0 0 0 0 0 0 0 0 0 0 0 0 0 0 0 0 0
----------------------------Interconnect-DETAILS--------------------------------
Class 0:
Packet latency average = 8.97064
	minimum = 6
	maximum = 34
Network latency average = 8.76678
	minimum = 6
	maximum = 34
Slowest packet = 14
Flit latency average = 7.07238
	minimum = 6
	maximum = 34
Slowest flit = 14
Fragmentation average = 0
	minimum = 0
	maximum = 0
Injected packet rate average = 0.0073093
	minimum = 0.00546358 (at node 9)
	maximum = 0.0127483 (at node 15)
Accepted packet rate average = 0.0073093
	minimum = 0.00546358 (at node 9)
	maximum = 0.0127483 (at node 15)
Injected flit rate average = 0.0212656
	minimum = 0.00546358 (at node 9)
	maximum = 0.0567881 (at node 15)
Accepted flit rate average= 0.0212656
	minimum = 0.00695364 (at node 19)
	maximum = 0.0437086 (at node 1)
Injected packet length average = 2.9094
Accepted packet length average = 2.9094
Total in-flight flits = 0 (0 measured)
====== Overall Traffic Statistics ======
====== Traffic class 0 ======
Packet latency average = 8.97064 (1 samples)
	minimum = 6 (1 samples)
	maximum = 34 (1 samples)
Network latency average = 8.76678 (1 samples)
	minimum = 6 (1 samples)
	maximum = 34 (1 samples)
Flit latency average = 7.07238 (1 samples)
	minimum = 6 (1 samples)
	maximum = 34 (1 samples)
Fragmentation average = 0 (1 samples)
	minimum = 0 (1 samples)
	maximum = 0 (1 samples)
Injected packet rate average = 0.0073093 (1 samples)
	minimum = 0.00546358 (1 samples)
	maximum = 0.0127483 (1 samples)
Accepted packet rate average = 0.0073093 (1 samples)
	minimum = 0.00546358 (1 samples)
	maximum = 0.0127483 (1 samples)
Injected flit rate average = 0.0212656 (1 samples)
	minimum = 0.00546358 (1 samples)
	maximum = 0.0567881 (1 samples)
Accepted flit rate average = 0.0212656 (1 samples)
	minimum = 0.00695364 (1 samples)
	maximum = 0.0437086 (1 samples)
Injected packet size average = 2.9094 (1 samples)
Accepted packet size average = 2.9094 (1 samples)
Hops average = 1 (1 samples)
----------------------------END-of-Interconnect-DETAILS-------------------------


gpgpu_simulation_time = 0 days, 0 hrs, 0 min, 3 sec (3 sec)
gpgpu_simulation_rate = 305912 (inst/sec)
gpgpu_simulation_rate = 2013 (cycle/sec)
GPGPU-Sim: synchronize waiting for inactive GPU simulation
GPGPU-Sim API: Stream Manager State
GPGPU-Sim: detected inactive GPU simulation thread

[...]
traffic_breakdown_coretomem[INST_ACC_R] = 480 {8:60,}
traffic_breakdown_memtocore[CONST_ACC_R] = 1080 {72:15,}
traffic_breakdown_memtocore[GLOBAL_ACC_R] = 84432336 {136:620826,}
traffic_breakdown_memtocore[GLOBAL_ACC_W] = 3305736 {8:413217,}
traffic_breakdown_memtocore[INST_ACC_R] = 8160 {136:60,}
maxmrqlatency = 1280 
maxdqlatency = 0 
maxmflatency = 2545 
averagemflatency = 397 
max_icnt2mem_latency = 929 
max_icnt2sh_latency = 763579 
mrq_lat_table:42981 	1330 	4067 	4318 	6049 	2359 	1076 	1072 	627 	29 	15 	0 	0 	0 	0 	0 	0 	0 	0 	0 	0 	0 	0 	0 	0 	0 	0 	0 	0 	0 	0 	0 	
dq_lat_table:0 	0 	0 	0 	0 	0 	0 	0 	0 	0 	0 	0 	0 	0 	0 	0 	0 	0 	0 	0 	0 	0 	0 	0 	0 	0 	0 	0 	0 	0 	0 	0 	
mf_lat_table:0 	0 	0 	0 	0 	0 	0 	136109 	703810 	193278 	857 	4 	0 	0 	0 	0 	0 	0 	0 	0 	0 	0 	0 	0 	0 	0 	0 	0 	0 	0 	0 	0 	
icnt2mem_lat_table:0 	0 	0 	85307 	30349 	81983 	324149 	239564 	268505 	4261 	0 	0 	0 	0 	0 	0 	0 	0 	0 	0 	0 	0 	0 	0 	
icnt2sh_lat_table:0 	0 	0 	39883 	292832 	270433 	17586 	107 	0 	0 	2 	9 	33 	881 	9186 	18601 	43723 	99706 	168110 	72966 	0 	0 	0 	0 	
mf_lat_pw_table:0 	0 	0 	0 	0 	0 	0 	104 	1420 	10 	0 	0 	0 	0 	0 	0 	0 	0 	0 	0 	0 	0 	0 	0 	0 	0 	0 	0 	0 	0 	0 	0 	
maximum concurrent accesses to same row:
dram[0]:        39        33        26        22        26        32        32        45        53        35        26        31        35        32        34        33 
dram[1]:        39        34        46        35        30        16        30        28        43        22        20        22        32        32        31        35 
dram[2]:        40        33        30        45        24        30        32        34        32        35        26        23        36        33        34        50 
dram[3]:        33        25        25        44        39        26        26        33        29        21        20        22        34        33        34        32 
dram[4]:        32        28        32        36        24        21        32        32        36        32        22        23        33        42        33        33 
dram[5]:        38        28        40        41        22        22        28        26        26        24        23        30        32        32        32        33 
maximum service time to same row:
dram[0]:     55156     66773     69671     38592     60589     57452     49968     47747     69418     71860     57857     59739     81550     82836    100337     98127 
dram[1]:     67106     71258     61514     55061    107813     50384     60666     41850     59158     77929     46606     74119     58722     96438     70682     84087 
dram[2]:     64842     40324     60923     59002     69285     49977     29387     49744     49950     70059     47755     63003     57898     63721     73628    147147 
dram[3]:     93562     51249     84581     86733     58769     42923     47516     58701     38461     39887     50268     52181     72352     99569     66347     71962 
dram[4]:     67934     81878     47281     65032     57363     61015     91653     63681     78240     39603     31700     56244    111194     67635     69256     98163 
dram[5]:     76804     64187     57552     53628     80710     45075     40600     38566     62897     30856     52208     42316     90963     84319    130406    112150 
average row accesses per activate:
dram[0]:  3.502591  3.158537  3.086420  3.400000  4.094340  4.000000  3.587156  3.739910  4.295858  4.452941  3.380000  3.267677  4.254717  4.066667  8.540000  6.055555 
dram[1]:  4.021053  3.990148  3.508621  3.461864  3.492611  3.262911  3.469027  3.252000  3.240664  3.626728  3.621762  3.068182  3.798450  4.377193  6.402778  6.038462 
dram[2]:  3.752525  3.099174  4.005618  4.016043  3.616279  4.086420  4.091429  4.551515  3.576744  3.688442  3.248780  2.978070  4.619048  4.304348  5.972973  6.793651 
dram[3]:  3.431818  3.177866  3.594340  3.590476  4.676692  3.915152  3.687500  4.031915  3.486607  3.566964  2.909091  2.705426  4.170940  4.391304  5.500000  5.585366 
dram[4]:  4.329412  3.959538  3.605769  3.517949  3.821429  4.092024  3.863388  4.462069  4.031250  4.320652  3.268293  3.338710  3.750000  4.258621  8.365385 10.552631 
dram[5]:  3.378995  3.098113  3.107280  3.018587  3.512820  3.147186  4.316667  3.781991  3.780000  3.048327  3.098214  2.768000  4.243698  4.105691  5.871428  6.000000 
average row locality = 63923/17058 = 3.747391
number of total memory accesses made:
dram[0]:         0         0         0         0         0         0         0         0         0         0         0         0         0         0         0         0 
dram[1]:         0         0         0         0         0         0         0         0         0         0         0         0         0         0         0         0 
dram[2]:         0         0         0         0         0         0         0         0         0         0         0         0         0         0         0         0 
dram[3]:         0         0         0         0         0         0         0         0         0         0         0         0         0         0         0         0 
dram[4]:         0         0         0         0         0         0         0         0         0         0         0         0         0         0         0         0 
dram[5]:         0         0         0         0         0         0         0         0         0         0         0         0         0         0         0         0 
total accesses: 0
min_bank_accesses = 0!
min_chip_accesses = 0!
number of total read accesses:
dram[0]:       493       538       536       550       501       502       601       623       546       571       531       528       419       450       426       434 
dram[1]:       526       558       538       548       540       540       605       625       587       587       542       532       450       459       458       468 
dram[2]:       523       525       510       517       472       508       554       577       575       563       538       554       457       465       439       427 
dram[3]:       532       557       532       520       470       495       589       578       585       598       563       552       452       467       450       457 
dram[4]:       518       494       521       496       492       502       562       520       583       592       540       506       442       459       431       401 
dram[5]:       526       564       571       570       517       536       584       595       579       604       557       548       461       463       410       442 
total reads: 49999
bank skew: 625/401 = 1.56
chip skew: 8563/8059 = 1.06
number of total write accesses:
dram[0]:       183       239       214       232       150       146       181       211       180       186       145       119        32        38         1         2 
dram[1]:       238       252       276       269       169       155       179       188       194       200       157       143        40        40         3         3 
dram[2]:       220       225       203       234       150       154       162       174       194       171       128       125        28        30         3         1 
dram[3]:       223       247       230       234       152       151       178       180       196       201       141       146        36        38         1         1 
dram[4]:       218       191       229       190       150       165       145       127       191       203       130       115        38        35         4         0 
dram[5]:       214       257       240       242       168       191       193       203       177       216       137       144        44        42         1         2 
total reads: 13924
min_bank_accesses = 0!
chip skew: 2506/2131 = 1.18
average mf latency per bank:
dram[0]:       2996      2649      3060      2952      3533      3567      3157      2903      3049      3030      6189      6818     14477     13570     21483     21182
dram[1]:       2679      2593      2787      2969      3375      3519      3198      3217      2996      2956      5919      6671     13314     13688     20385     20292
dram[2]:       2801      2802      3158      3057      3785      3626      3401      3272      3042      3294      6281      6737     13511     14440     20508     22252
dram[3]:       2771      2530      2919      2985      3681      3628      3205      3251      2886      2783      5860      6152     13225     13346     20128     20369
dram[4]:       3664      3104      3912      3322      4841      3546      4685      3772      4015      2783     38702      7152     18331     14072     28057     23392
dram[5]:       2734      2591      2712      2924      3226      3291      2949      3043      2856      2865      6071      6507     12621     13833     21272     21336
maximum mf latency per bank:
dram[0]:       1286      1577      1602      1409      1204      1380      1266      1097      1721      1568      1487      1548      1404      1740      1466      1670
dram[1]:        955       900       939       955       886       959      1050       902       956       955      1093      1004      1062       959       952      1021
dram[2]:       1440      1683      1141      1443      1221      1303      1303      1200      1512      1150      1144      1306      1205      1433      1151      1169
dram[3]:        912       987       976       927       930      1003      1695       900      1082       979       908       987      1029       965       898       998
dram[4]:       1597      1520      1467      1109      1221      1534      1115       976      2545      1207      1362      1295      1560      1533      1457      1442
dram[5]:       1086       977       871       894       903      1023      1719       894      1094      1077      1015      1051      1104      1014       882       962

Number of Memory Banks Accessed per Memory Operation per Warp (from 0):
0	0	0	0	0	0	0	0	0	0	0	0	0	0	0	0	0	0	0	0	0	0	0	0	0	0	0	0	0	0	0	0	0	0	0	0	0	0	0	0	0	0	0	0	0	0	0	0	0	0	0	0	0	0	0	0	0	0	0	0	0	0	0	0	0	0	0	0	0	0	0	0	0	0	0	0	0	0	0	0	0	0	0	0	0	0	0	0	0	0	0	0	0	0	0	0	
Average # of Memory Banks Accessed per Memory Operation per Warp=-nan

position of mrq chosen
0	0	0	0	0	0	0	0	0	0	0	0	0	0	0	0	

average position of mrq chosen = -nan
Memory Partition 0: 
Cache L2_bank_000:
MSHR contents

Cache L2_bank_001:
MSHR contents

In Dram Latency Queue (total = 0): 
DRAM[0]: 16 bks, busW=2 BL=8 CL=12, tRRD=2 tCCD=6, tRCD=12 tRAS=28 tRP=12 tRC=40
n_cmd=1010242 n_nop=966290 n_act=2759 n_pre=2743 n_req=10508 n_rd=32996 n_write=5454 bw_util=0.07612
n_activity=200704 dram_eff=0.3832
bk0: 1972a 993582i bk1: 2152a 990653i bk2: 2144a 990949i bk3: 2200a 990292i bk4: 2004a 995311i bk5: 2008a 994457i bk6: 2404a 988870i bk7: 2492a 989980i bk8: 2184a 990800i bk9: 2284a 991472i bk10: 2124a 993565i bk11: 2112a 992587i bk12: 1676a 998410i bk13: 1800a 996630i bk14: 1704a 1000994i bk15: 1736a 1000233i 
dram_util_bins: 0 0 0 0 0 0 0 0 0 0
dram_eff_bins: 0 0 0 0 0 0 0 0 0 0
mrqq: max=16 avg=0.225601
Memory Partition 1: 
Cache L2_bank_002:
MSHR contents

Cache L2_bank_003:
MSHR contents

In Dram Latency Queue (total = 0): 
DRAM[1]: 16 bks, busW=2 BL=8 CL=12, tRRD=2 tCCD=6, tRCD=12 tRAS=28 tRP=12 tRC=40
n_cmd=1010242 n_nop=963965 n_act=3017 n_pre=3001 n_req=11069 n_rd=34252 n_write=6007 bw_util=0.0797
n_activity=211863 dram_eff=0.38
bk0: 2104a 994132i bk1: 2232a 992084i bk2: 2152a 991339i bk3: 2192a 990999i bk4: 2160a 993567i bk5: 2160a 994494i bk6: 2420a 992177i bk7: 2500a 989211i bk8: 2348a 991542i bk9: 2348a 990825i bk10: 2168a 995134i bk11: 2128a 993148i bk12: 1800a 998412i bk13: 1836a 998246i bk14: 1832a 1001598i bk15: 1872a 1001058i 
dram_util_bins: 0 0 0 0 0 0 0 0 0 0
dram_eff_bins: 0 0 0 0 0 0 0 0 0 0
mrqq: max=16 avg=0.121596
Memory Partition 2: 
Cache L2_bank_004:
MSHR contents

Cache L2_bank_005:
MSHR contents

In Dram Latency Queue (total = 0): 
DRAM[2]: 16 bks, busW=2 BL=8 CL=12, tRRD=2 tCCD=6, tRCD=12 tRAS=28 tRP=12 tRC=40
n_cmd=1010242 n_nop=966772 n_act=2683 n_pre=2667 n_req=10406 n_rd=32816 n_write=5304 bw_util=0.07547
n_activity=198549 dram_eff=0.384
bk0: 2092a 994067i bk1: 2100a 990249i bk2: 2040a 993373i bk3: 2068a 992034i bk4: 1888a 995904i bk5: 2032a 994558i bk6: 2216a 992377i bk7: 2308a 991483i bk8: 2300a 990188i bk9: 2252a 991412i bk10: 2152a 993778i bk11: 2216a 992277i bk12: 1828a 997764i bk13: 1860a 996966i bk14: 1756a 1000266i bk15: 1708a 1001689i 
dram_util_bins: 0 0 0 0 0 0 0 0 0 0
dram_eff_bins: 0 0 0 0 0 0 0 0 0 0
mrqq: max=16 avg=0.220928
Memory Partition 3: 
Cache L2_bank_006:
MSHR contents

Cache L2_bank_007:
MSHR contents

In Dram Latency Queue (total = 0): 
DRAM[3]: 16 bks, busW=2 BL=8 CL=12, tRRD=2 tCCD=6, tRCD=12 tRAS=28 tRP=12 tRC=40
n_cmd=1010242 n_nop=965131 n_act=2933 n_pre=2917 n_req=10752 n_rd=33588 n_write=5673 bw_util=0.07773
n_activity=206774 dram_eff=0.3797
bk0: 2128a 992076i bk1: 2228a 990967i bk2: 2128a 991155i bk3: 2080a 992353i bk4: 1880a 996820i bk5: 1980a 994984i bk6: 2356a 990699i bk7: 2312a 992298i bk8: 2340a 992157i bk9: 2392a 992130i bk10: 2252a 993796i bk11: 2208a 991810i bk12: 1808a 998686i bk13: 1868a 998483i bk14: 1800a 1000939i bk15: 1828a 1000699i 
dram_util_bins: 0 0 0 0 0 0 0 0 0 0
dram_eff_bins: 0 0 0 0 0 0 0 0 0 0
mrqq: max=16 avg=0.140921
Memory Partition 4: 
Cache L2_bank_008:
MSHR contents

Cache L2_bank_009:
MSHR contents

In Dram Latency Queue (total = 0): 
DRAM[4]: 16 bks, busW=2 BL=8 CL=12, tRRD=2 tCCD=6, tRCD=12 tRAS=28 tRP=12 tRC=40
n_cmd=1010242 n_nop=967878 n_act=2506 n_pre=2490 n_req=10190 n_rd=32236 n_write=5132 bw_util=0.07398
n_activity=195223 dram_eff=0.3828
bk0: 2072a 993091i bk1: 1976a 992605i bk2: 2084a 991295i bk3: 1984a 993101i bk4: 1968a 994087i bk5: 2008a 993588i bk6: 2248a 993302i bk7: 2080a 994527i bk8: 2332a 990049i bk9: 2368a 989579i bk10: 2160a 992987i bk11: 2024a 993749i bk12: 1768a 996399i bk13: 1836a 996558i bk14: 1724a 1000570i bk15: 1604a 1001930i 
dram_util_bins: 0 0 0 0 0 0 0 0 0 0
dram_eff_bins: 0 0 0 0 0 0 0 0 0 0
mrqq: max=16 avg=0.229557
Memory Partition 5: 
Cache L2_bank_010:
MSHR contents

Cache L2_bank_011:
MSHR contents

In Dram Latency Queue (total = 0): 
DRAM[5]: 16 bks, busW=2 BL=8 CL=12, tRRD=2 tCCD=6, tRCD=12 tRAS=28 tRP=12 tRC=40
n_cmd=1010242 n_nop=963815 n_act=3160 n_pre=3144 n_req=10998 n_rd=34108 n_write=6015 bw_util=0.07943
n_activity=212096 dram_eff=0.3783
bk0: 2104a 990424i bk1: 2256a 991123i bk2: 2284a 990552i bk3: 2280a 989319i bk4: 2068a 994561i bk5: 2144a 992466i bk6: 2336a 991094i bk7: 2380a 988527i bk8: 2316a 991400i bk9: 2416a 987968i bk10: 2228a 991834i bk11: 2192a 991525i bk12: 1844a 997498i bk13: 1852a 997367i bk14: 1640a 1000991i bk15: 1768a 1000420i 
dram_util_bins: 0 0 0 0 0 0 0 0 0 0
dram_eff_bins: 0 0 0 0 0 0 0 0 0 0
mrqq: max=16 avg=0.173177

========= L2 cache stats =========
L2_cache_bank[0]: Access = 82272, Miss = 4053, Miss_rate = 0.049, Pending_hits = 21, Reservation_fails = 2356
L2_cache_bank[1]: Access = 82931, Miss = 4196, Miss_rate = 0.051, Pending_hits = 21, Reservation_fails = 1622
L2_cache_bank[2]: Access = 81998, Miss = 4246, Miss_rate = 0.052, Pending_hits = 21, Reservation_fails = 113
L2_cache_bank[3]: Access = 83320, Miss = 4317, Miss_rate = 0.052, Pending_hits = 14, Reservation_fails = 2
L2_cache_bank[4]: Access = 81752, Miss = 4068, Miss_rate = 0.050, Pending_hits = 12, Reservation_fails = 1376
L2_cache_bank[5]: Access = 83339, Miss = 4136, Miss_rate = 0.050, Pending_hits = 11, Reservation_fails = 3334
L2_cache_bank[6]: Access = 82465, Miss = 4173, Miss_rate = 0.051, Pending_hits = 12, Reservation_fails = 0
L2_cache_bank[7]: Access = 83182, Miss = 4224, Miss_rate = 0.051, Pending_hits = 14, Reservation_fails = 1
L2_cache_bank[8]: Access = 122546, Miss = 4089, Miss_rate = 0.033, Pending_hits = 14, Reservation_fails = 2036
L2_cache_bank[9]: Access = 83582, Miss = 3970, Miss_rate = 0.047, Pending_hits = 22, Reservation_fails = 2449
L2_cache_bank[10]: Access = 82796, Miss = 4205, Miss_rate = 0.051, Pending_hits = 13, Reservation_fails = 67
L2_cache_bank[11]: Access = 83935, Miss = 4322, Miss_rate = 0.051, Pending_hits = 15, Reservation_fails = 0
L2_total_cache_accesses = 1034118
L2_total_cache_misses = 49999
L2_total_cache_miss_rate = 0.0483
L2_total_cache_pending_hits = 190
L2_total_cache_reservation_fails = 13356
L2_total_cache_breakdown:
	L2_cache_stats_breakdown[GLOBAL_ACC_R][HIT] = 578027
	L2_cache_stats_breakdown[GLOBAL_ACC_R][HIT_RESERVED] = 21
	L2_cache_stats_breakdown[GLOBAL_ACC_R][MISS] = 42778
	L2_cache_stats_breakdown[GLOBAL_ACC_R][RESERVATION_FAIL] = 13007
	L2_cache_stats_breakdown[CONST_ACC_R][HIT] = 11
	L2_cache_stats_breakdown[CONST_ACC_R][HIT_RESERVED] = 3
	L2_cache_stats_breakdown[CONST_ACC_R][MISS] = 1
	L2_cache_stats_breakdown[CONST_ACC_R][RESERVATION_FAIL] = 111
	L2_cache_stats_breakdown[GLOBAL_ACC_W][HIT] = 405841
	L2_cache_stats_breakdown[GLOBAL_ACC_W][HIT_RESERVED] = 160
	L2_cache_stats_breakdown[GLOBAL_ACC_W][MISS] = 7216
	L2_cache_stats_breakdown[GLOBAL_ACC_W][RESERVATION_FAIL] = 6
	L2_cache_stats_breakdown[INST_ACC_R][HIT] = 50
	L2_cache_stats_breakdown[INST_ACC_R][HIT_RESERVED] = 6
	L2_cache_stats_breakdown[INST_ACC_R][MISS] = 4
	L2_cache_stats_breakdown[INST_ACC_R][RESERVATION_FAIL] = 232
L2_cache_data_port_util = 0.299
L2_cache_fill_port_util = 0.022

icnt_total_pkts_mem_to_simt=3517692
icnt_total_pkts_simt_to_mem=1447913
LD_mem_lat_dist  0 0 0 0 0 0 0 0 0 0 0 0 0 0 0 0 0 0 0 0 0 0 0 0 0 0 0
ST_mem_lat_dist  0 0 0 0 0 0 0 0 0 0 0 0 0 0 0 0 0 0 0 0 0 0 0 0 0 0 0
----------------------------Interconnect-DETAILS--------------------------------
Class 0:
Packet latency average = 9.47555
	minimum = 6
	maximum = 43
Network latency average = 9.09194
	minimum = 6
	maximum = 34
Slowest packet = 2066192
Flit latency average = 7.73202
	minimum = 6
	maximum = 30
Slowest flit = 4964204
Fragmentation average = 0
	minimum = 0
	maximum = 0
Injected packet rate average = 0.0345283
	minimum = 0.0205457 (at node 14)
	maximum = 0.0433387 (at node 20)
Accepted packet rate average = 0.0345283
	minimum = 0.0205457 (at node 14)
	maximum = 0.0433387 (at node 20)
Injected flit rate average = 0.0958801
	minimum = 0.0243981 (at node 14)
	maximum = 0.185875 (at node 20)
Accepted flit rate average= 0.0958801
	minimum = 0.0391653 (at node 17)
	maximum = 0.18427 (at node 4)
Injected packet length average = 2.77686
Accepted packet length average = 2.77686
Total in-flight flits = 0 (0 measured)
====== Overall Traffic Statistics ======
====== Traffic class 0 ======
Packet latency average = 35.037 (8 samples)
	minimum = 6 (8 samples)
	maximum = 325.25 (8 samples)
Network latency average = 22.6587 (8 samples)
	minimum = 6 (8 samples)
	maximum = 274.625 (8 samples)
Flit latency average = 16.8682 (8 samples)
	minimum = 6 (8 samples)
	maximum = 272.875 (8 samples)
Fragmentation average = 0.032597 (8 samples)
	minimum = 0 (8 samples)
	maximum = 154.625 (8 samples)
Injected packet rate average = 0.0552519 (8 samples)
	minimum = 0.0433097 (8 samples)
	maximum = 0.101188 (8 samples)
Accepted packet rate average = 0.0552519 (8 samples)
	minimum = 0.0433097 (8 samples)
	maximum = 0.101188 (8 samples)
Injected flit rate average = 0.135871 (8 samples)
	minimum = 0.0584027 (8 samples)
	maximum = 0.264405 (8 samples)
Accepted flit rate average = 0.135871 (8 samples)
	minimum = 0.0743773 (8 samples)
	maximum = 0.23434 (8 samples)
Injected packet size average = 2.45913 (8 samples)
Accepted packet size average = 2.45913 (8 samples)
Hops average = 1 (8 samples)
----------------------------END-of-Interconnect-DETAILS-------------------------


gpgpu_simulation_time = 0 days, 0 hrs, 6 min, 55 sec (415 sec)
gpgpu_simulation_rate = 38313 (inst/sec)
gpgpu_simulation_rate = 1844 (cycle/sec)
GPGPU-Sim: synchronize waiting for inactive GPU simulation
GPGPU-Sim API: Stream Manager State
GPGPU-Sim: detected inactive GPU simulation thread
Kernel Executed 8 times
Processing time: 414300.781250 (ms)
Result stored in result.txt
