

        *** GPGPU-Sim Simulator Version 3.2.2  [build 0] ***


GPGPU-Sim PTX: simulation mode 0 (can change with PTX_SIM_MODE_FUNC environment variable:
               1=functional simulation only, 0=detailed performance simulator)
GPGPU-Sim: Configuration options:

-network_mode                           1 # Interconnection network mode
-inter_config_file   config_fermi_islip.icnt # Interconnection network config file
-gpgpu_ptx_use_cuobjdump                    1 # Use cuobjdump to extract ptx and sass from binaries
-gpgpu_experimental_lib_support                    0 # Try to extract code from cuda libraries [Broken because of unknown cudaGetExportTable]
-gpgpu_ptx_convert_to_ptxplus                    0 # Convert SASS (native ISA) to ptxplus and run ptxplus
-gpgpu_ptx_force_max_capability                   20 # Force maximum compute capability
-gpgpu_ptx_inst_debug_to_file                    0 # Dump executed instructions' debug information to file
-gpgpu_ptx_inst_debug_file       inst_debug.txt # Executed instructions' debug output file
-gpgpu_ptx_inst_debug_thread_uid                    1 # Thread UID for executed instructions' debug output
-gpgpu_simd_model                       1 # 1 = post-dominator
-gpgpu_shader_core_pipeline              1536:32 # shader core pipeline config, i.e., {<nthread>:<warpsize>}
-gpgpu_tex_cache:l1  4:128:24,L:R:m:N:L,F:128:4,128:2 # per-shader L1 texture cache  (READ-ONLY) config  {<nsets>:<bsize>:<assoc>,<rep>:<wr>:<alloc>:<wr_alloc>,<mshr>:<N>:<merge>,<mq>:<rf>}
-gpgpu_const_cache:l1 64:64:2,L:R:f:N:L,A:2:32,4 # per-shader L1 constant memory cache  (READ-ONLY) config  {<nsets>:<bsize>:<assoc>,<rep>:<wr>:<alloc>:<wr_alloc>,<mshr>:<N>:<merge>,<mq>} 
-gpgpu_cache:il1     4:128:4,L:R:f:N:L,A:2:32,4 # shader L1 instruction cache config  {<nsets>:<bsize>:<assoc>,<rep>:<wr>:<alloc>:<wr_alloc>,<mshr>:<N>:<merge>,<mq>} 
-gpgpu_cache:dl1     32:128:2,L:L:m:N:H,A:32:8,8 # per-shader L1 data cache config  {<nsets>:<bsize>:<assoc>,<rep>:<wr>:<alloc>:<wr_alloc>,<mshr>:<N>:<merge>,<mq> | none}
-gpgpu_cache:dl1PrefL1                 none # per-shader L1 data cache config  {<nsets>:<bsize>:<assoc>,<rep>:<wr>:<alloc>:<wr_alloc>,<mshr>:<N>:<merge>,<mq> | none}
-gpgpu_cache:dl1PreShared                 none # per-shader L1 data cache config  {<nsets>:<bsize>:<assoc>,<rep>:<wr>:<alloc>:<wr_alloc>,<mshr>:<N>:<merge>,<mq> | none}
-gmem_skip_L1D                          0 # global memory access skip L1D cache (implements -Xptxas -dlcm=cg, default=no skip)
-gpgpu_perfect_mem                      0 # enable perfect memory mode (no cache miss)
-n_regfile_gating_group                    4 # group of lanes that should be read/written together)
-gpgpu_clock_gated_reg_file                    0 # enable clock gated reg file for power calculations
-gpgpu_clock_gated_lanes                    0 # enable clock gated lanes for power calculations
-gpgpu_shader_registers                32768 # Number of registers per shader core. Limits number of concurrent CTAs. (default 8192)
-gpgpu_shader_cta                       8 # Maximum number of concurrent CTAs in shader (default 8)
-gpgpu_num_cta_barriers                   16 # Maximum number of named barriers per CTA (default 16)
-gpgpu_n_clusters                      15 # number of processing clusters
-gpgpu_n_cores_per_cluster                    1 # number of simd cores per cluster
-gpgpu_n_cluster_ejection_buffer_size                    8 # number of packets in ejection buffer
-gpgpu_n_ldst_response_buffer_size                    2 # number of response packets in ld/st unit ejection buffer
-gpgpu_shmem_size                   16384 # Size of shared memory per shader core (default 16kB)
-gpgpu_shmem_size                   49152 # Size of shared memory per shader core (default 16kB)
-gpgpu_shmem_size_PrefL1                16384 # Size of shared memory per shader core (default 16kB)
-gpgpu_shmem_size_PrefShared                16384 # Size of shared memory per shader core (default 16kB)
-gpgpu_shmem_num_banks                   32 # Number of banks in the shared memory in each shader core (default 16)
-gpgpu_shmem_limited_broadcast                    0 # Limit shared memory to do one broadcast per cycle (default on)
-gpgpu_shmem_warp_parts                    1 # Number of portions a warp is divided into for shared memory bank conflict check 
-gpgpu_warpdistro_shader                   -1 # Specify which shader core to collect the warp size distribution from
-gpgpu_warp_issue_shader                    0 # Specify which shader core to collect the warp issue distribution from
-gpgpu_local_mem_map                    1 # Mapping from local memory space address to simulated GPU physical address space (default = enabled)
-gpgpu_num_reg_banks                   16 # Number of register banks (default = 8)
-gpgpu_reg_bank_use_warp_id                    0 # Use warp ID in mapping registers to banks (default = off)
-gpgpu_operand_collector_num_units_sp                    6 # number of collector units (default = 4)
-gpgpu_operand_collector_num_units_sfu                    8 # number of collector units (default = 4)
-gpgpu_operand_collector_num_units_mem                    2 # number of collector units (default = 2)
-gpgpu_operand_collector_num_units_gen                    0 # number of collector units (default = 0)
-gpgpu_operand_collector_num_in_ports_sp                    2 # number of collector unit in ports (default = 1)
-gpgpu_operand_collector_num_in_ports_sfu                    1 # number of collector unit in ports (default = 1)
-gpgpu_operand_collector_num_in_ports_mem                    1 # number of collector unit in ports (default = 1)
-gpgpu_operand_collector_num_in_ports_gen                    0 # number of collector unit in ports (default = 0)
-gpgpu_operand_collector_num_out_ports_sp                    2 # number of collector unit in ports (default = 1)
-gpgpu_operand_collector_num_out_ports_sfu                    1 # number of collector unit in ports (default = 1)
-gpgpu_operand_collector_num_out_ports_mem                    1 # number of collector unit in ports (default = 1)
-gpgpu_operand_collector_num_out_ports_gen                    0 # number of collector unit in ports (default = 0)
-gpgpu_coalesce_arch                   13 # Coalescing arch (default = 13, anything else is off for now)
-gpgpu_num_sched_per_core                    2 # Number of warp schedulers per core
-gpgpu_max_insn_issue_per_warp                    1 # Max number of instructions that can be issued per warp in one cycle by scheduler
-gpgpu_simt_core_sim_order                    1 # Select the simulation order of cores in a cluster (0=Fix, 1=Round-Robin)
-gpgpu_pipeline_widths        2,1,1,2,1,1,2 # Pipeline widths ID_OC_SP,ID_OC_SFU,ID_OC_MEM,OC_EX_SP,OC_EX_SFU,OC_EX_MEM,EX_WB
-gpgpu_num_sp_units                     2 # Number of SP units (default=1)
-gpgpu_num_sfu_units                    1 # Number of SF units (default=1)
-gpgpu_num_mem_units                    1 # Number if ldst units (default=1) WARNING: not hooked up to anything
-gpgpu_scheduler                      gto # Scheduler configuration: < lrr | gto | two_level_active > If two_level_active:<num_active_warps>:<inner_prioritization>:<outer_prioritization>For complete list of prioritization values see shader.h enum scheduler_prioritization_typeDefault: gto
-gpgpu_dram_scheduler                    1 # 0 = fifo, 1 = FR-FCFS (defaul)
-gpgpu_dram_partition_queues              8:8:8:8 # i2$:$2d:d2$:$2i
-l2_ideal                               0 # Use a ideal L2 cache that always hit
-gpgpu_cache:dl2     64:128:8,L:B:m:W:L,A:32:4,4:0,32 # unified banked L2 data cache config  {<nsets>:<bsize>:<assoc>,<rep>:<wr>:<alloc>:<wr_alloc>,<mshr>:<N>:<merge>,<mq>}
-gpgpu_cache:dl2_texture_only                    0 # L2 cache used for texture only
-gpgpu_n_mem                            6 # number of memory modules (e.g. memory controllers) in gpu
-gpgpu_n_sub_partition_per_mchannel                    2 # number of memory subpartition in each memory module
-gpgpu_n_mem_per_ctrlr                    2 # number of memory chips per memory controller
-gpgpu_memlatency_stat                   14 # track and display latency statistics 0x2 enables MC, 0x4 enables queue logs
-gpgpu_frfcfs_dram_sched_queue_size                   16 # 0 = unlimited (default); # entries per chip
-gpgpu_dram_return_queue_size                  116 # 0 = unlimited (default); # entries per chip
-gpgpu_dram_buswidth                    4 # default = 4 bytes (8 bytes per cycle at DDR)
-gpgpu_dram_burst_length                    8 # Burst length of each DRAM request (default = 4 data bus cycle)
-dram_data_command_freq_ratio                    4 # Frequency ratio between DRAM data bus and command bus (default = 2 times, i.e. DDR)
-gpgpu_dram_timing_opt nbk=16:CCD=2:RRD=6:RCD=12:RAS=28:RP=12:RC=40: CL=12:WL=4:CDLR=5:WR=12:nbkgrp=4:CCDL=3:RTPL=2 # DRAM timing parameters = {nbk:tCCD:tRRD:tRCD:tRAS:tRP:tRC:CL:WL:tCDLR:tWR:nbkgrp:tCCDL:tRTPL}
-rop_latency                          120 # ROP queue latency (default 85)
-dram_latency                         100 # DRAM latency (default 30)
-gpgpu_mem_addr_mapping dramid@8;00000000.00000000.00000000.00000000.0000RRRR.RRRRRRRR.BBBCCCCB.CCSSSSSS # mapping memory address to dram model {dramid@<start bit>;<memory address map>}
-gpgpu_mem_addr_test                    0 # run sweep test to check address mapping for aliased address
-gpgpu_mem_address_mask                    1 # 0 = old addressing mask, 1 = new addressing mask, 2 = new add. mask + flipped bank sel and chip sel bits
-gpuwattch_xml_file  gpuwattch_gtx480.xml # GPUWattch XML file
-power_simulation_enabled                    1 # Turn on power simulator (1=On, 0=Off)
-power_per_cycle_dump                    0 # Dump detailed power output each cycle
-power_trace_enabled                    0 # produce a file for the power trace (1=On, 0=Off)
-power_trace_zlevel                     6 # Compression level of the power trace output log (0=no comp, 9=highest)
-steady_power_levels_enabled                    0 # produce a file for the steady power levels (1=On, 0=Off)
-steady_state_definition                  8:4 # allowed deviation:number of samples
-gpgpu_max_cycle                        0 # terminates gpu simulation early (0 = no limit)
-gpgpu_max_insn                         0 # terminates gpu simulation early (0 = no limit)
-gpgpu_max_cta                          0 # terminates gpu simulation early (0 = no limit)
-gpgpu_runtime_stat                   500 # display runtime statistics such as dram utilization {<freq>:<flag>}
-liveness_message_freq                    1 # Minimum number of seconds between simulation liveness messages (0 = always print)
-gpgpu_flush_l1_cache                    0 # Flush L1 cache at the end of each kernel call
-gpgpu_flush_l2_cache                    0 # Flush L2 cache at the end of each kernel call
-gpgpu_deadlock_detect                    1 # Stop the simulation at deadlock (1=on (default), 0=off)
-gpgpu_ptx_instruction_classification                    0 # if enabled will classify ptx instruction types per kernel (Max 255 kernels now)
-gpgpu_ptx_sim_mode                     0 # Select between Performance (default) or Functional simulation (1)
-gpgpu_clock_domains 700.0:700.0:700.0:924.0 # Clock Domain Frequencies in MhZ {<Core Clock>:<ICNT Clock>:<L2 Clock>:<DRAM Clock>}
-gpgpu_max_concurrent_kernel                    8 # maximum kernels that can run concurrently on GPU
-gpgpu_cflog_interval                    0 # Interval between each snapshot in control flow logger
-visualizer_enabled                     0 # Turn on visualizer output (1=On, 0=Off)
-visualizer_outputfile                 NULL # Specifies the output log file for visualizer
-visualizer_zlevel                      6 # Compression level of the visualizer output log (0=no comp, 9=highest)
-trace_enabled                          0 # Turn on traces
-trace_components                    none # comma seperated list of traces to enable. Complete list found in trace_streams.tup. Default none
-trace_sampling_core                    0 # The core which is printed using CORE_DPRINTF. Default 0
-trace_sampling_memory_partition                   -1 # The memory partition which is printed using MEMPART_DPRINTF. Default -1 (i.e. all)
-enable_ptx_file_line_stats                    1 # Turn on PTX source line statistic profiling. (1 = On)
-ptx_line_stats_filename gpgpu_inst_stats.txt # Output file for PTX source line statistics.
-save_embedded_ptx                      0 # saves ptx files embedded in binary as <n>.ptx
-keep                                   0 # keep intermediate files created by GPGPU-Sim when interfacing with external programs
-gpgpu_ptx_save_converted_ptxplus                    0 # Saved converted ptxplus to a file
-ptx_opcode_latency_int         4,13,4,5,145 # Opcode latencies for integers <ADD,MAX,MUL,MAD,DIV>Default 1,1,19,25,145
-ptx_opcode_latency_fp          4,13,4,5,39 # Opcode latencies for single precision floating points <ADD,MAX,MUL,MAD,DIV>Default 1,1,1,1,30
-ptx_opcode_latency_dp         8,19,8,8,330 # Opcode latencies for double precision floating points <ADD,MAX,MUL,MAD,DIV>Default 8,8,8,8,335
-ptx_opcode_initiation_int            1,2,2,1,8 # Opcode initiation intervals for integers <ADD,MAX,MUL,MAD,DIV>Default 1,1,4,4,32
-ptx_opcode_initiation_fp            1,2,1,1,4 # Opcode initiation intervals for single precision floating points <ADD,MAX,MUL,MAD,DIV>Default 1,1,1,1,5
-ptx_opcode_initiation_dp         8,16,8,8,130 # Opcode initiation intervals for double precision floating points <ADD,MAX,MUL,MAD,DIV>Default 8,8,8,8,130
DRAM Timing Options:
nbk                                    16 # number of banks
CCD                                     2 # column to column delay
RRD                                     6 # minimal delay between activation of rows in different banks
RCD                                    12 # row to column delay
RAS                                    28 # time needed to activate row
RP                                     12 # time needed to precharge (deactivate) row
RC                                     40 # row cycle time
CDLR                                    5 # switching from write to read (changes tWTR)
WR                                     12 # last data-in to row precharge
CL                                     12 # CAS latency
WL                                      4 # Write latency
nbkgrp                                  4 # number of bank groups
CCDL                                    3 # column to column delay between accesses to different bank groups
RTPL                                    2 # read to precharge delay between accesses to different bank groups
Total number of memory sub partition = 12
addr_dec_mask[CHIP]  = 0000000000000000 	high:64 low:0
addr_dec_mask[BK]    = 000000000000e100 	high:16 low:8
addr_dec_mask[ROW]   = 000000000fff0000 	high:28 low:16
addr_dec_mask[COL]   = 0000000000001eff 	high:13 low:0
addr_dec_mask[BURST] = 000000000000003f 	high:6 low:0
sub_partition_id_mask = 0000000000000100
GPGPU-Sim uArch: clock freqs: 700000000.000000:700000000.000000:700000000.000000:924000000.000000
GPGPU-Sim uArch: clock periods: 0.00000000142857142857:0.00000000142857142857:0.00000000142857142857:0.00000000108225108225
*** Initializing Memory Statistics ***
GPGPU-Sim uArch: interconnect node map (shaderID+MemID to icntID)
GPGPU-Sim uArch: Memory nodes ID start from index: 15
GPGPU-Sim uArch:    0   1   2   3   4
GPGPU-Sim uArch:    5   6   7   8   9
GPGPU-Sim uArch:   10  11  12  13  14
GPGPU-Sim uArch:   15  16  17  18  19
GPGPU-Sim uArch:   20  21  22  23  24
GPGPU-Sim uArch:   25  26
GPGPU-Sim uArch: interconnect node reverse map (icntID to shaderID+MemID)
GPGPU-Sim uArch: Memory nodes start from ID: 15
GPGPU-Sim uArch:    0   1   2   3   4
GPGPU-Sim uArch:    5   6   7   8   9
GPGPU-Sim uArch:   10  11  12  13  14
GPGPU-Sim uArch:   15  16  17  18  19
GPGPU-Sim uArch:   20  21  22  23  24
GPGPU-Sim uArch:   25  26
575cc336cf9f8f0a73559869c93333de  /home/scratch/adwait/applications/benchmarks/CUDA/BFS2/gpgpu_ptx_sim__BFS2
GPGPU-Sim uArch: performance model initialization complete.
GPGPU-Sim PTX: __cudaRegisterFatBinary, fat_cubin_handle = 1, filename=bfs.cu
self exe links to: /home/scratch/adwait/applications/benchmarks/CUDA/BFS2/gpgpu_ptx_sim__BFS2
Running md5sum using "md5sum /home/scratch/adwait/applications/benchmarks/CUDA/BFS2/gpgpu_ptx_sim__BFS2 "
Running cuobjdump using "$CUDA_INSTALL_PATH/bin/cuobjdump -ptx -elf -sass /home/scratch/adwait/applications/benchmarks/CUDA/BFS2/gpgpu_ptx_sim__BFS2 > _cuobjdump_complete_output_rxmw6Y"
Parsing file _cuobjdump_complete_output_rxmw6Y
######### cuobjdump parser ########
## Adding new section ELF
Adding arch: sm_20
Adding identifier: bfs.cu
## Adding new section PTX
Adding ptx filename: _cuobjdump_1.ptx
Adding arch: sm_20
Adding identifier: bfs.cu
Done parsing!!!
GPGPU-Sim PTX: __cudaRegisterFunction _Z7Kernel2PbS_S_S_i : hostFun 0x0x4017d8, fat_cubin_handle = 1
GPGPU-Sim PTX: instruction assembly for function '_Z6KernelP4NodePiPbS2_S2_S1_i'...   done.
GPGPU-Sim PTX: finding reconvergence points for '_Z6KernelP4NodePiPbS2_S2_S1_i'...
GPGPU-Sim PTX: Finding dominators for '_Z6KernelP4NodePiPbS2_S2_S1_i'...
GPGPU-Sim PTX: Finding immediate dominators for '_Z6KernelP4NodePiPbS2_S2_S1_i'...
GPGPU-Sim PTX: Finding postdominators for '_Z6KernelP4NodePiPbS2_S2_S1_i'...
GPGPU-Sim PTX: Finding immediate postdominators for '_Z6KernelP4NodePiPbS2_S2_S1_i'...
GPGPU-Sim PTX: pre-decoding instructions for '_Z6KernelP4NodePiPbS2_S2_S1_i'...
GPGPU-Sim PTX: reconvergence points for _Z6KernelP4NodePiPbS2_S2_S1_i...
GPGPU-Sim PTX:  1 (potential) branch divergence @  PC=0x030 (_1.ptx:73) @%p1 bra $Lt_0_5122;
GPGPU-Sim PTX:    immediate post dominator      @  PC=0x1c0 (_1.ptx:135) exit;
GPGPU-Sim PTX:  2 (potential) branch divergence @  PC=0x068 (_1.ptx:80) @%p2 bra $Lt_0_5122;
GPGPU-Sim PTX:    immediate post dominator      @  PC=0x1c0 (_1.ptx:135) exit;
GPGPU-Sim PTX:  3 (potential) branch divergence @  PC=0x0c0 (_1.ptx:93) @%p3 bra $Lt_0_5122;
GPGPU-Sim PTX:    immediate post dominator      @  PC=0x1c0 (_1.ptx:135) exit;
GPGPU-Sim PTX:  4 (potential) branch divergence @  PC=0x120 (_1.ptx:108) @%p4 bra $Lt_0_4354;
GPGPU-Sim PTX:    immediate post dominator      @  PC=0x1a0 (_1.ptx:128) add.s32 %r10, %r10, 1;
GPGPU-Sim PTX:  5 (potential) branch divergence @  PC=0x1b8 (_1.ptx:131) @%p5 bra $Lt_0_4098;
GPGPU-Sim PTX:    immediate post dominator      @  PC=0x1c0 (_1.ptx:135) exit;
GPGPU-Sim PTX: ... end of reconvergence points for _Z6KernelP4NodePiPbS2_S2_S1_i
GPGPU-Sim PTX: ... done pre-decoding instructions for '_Z6KernelP4NodePiPbS2_S2_S1_i'.
GPGPU-Sim PTX: instruction assembly for function '_Z7Kernel2PbS_S_S_i'...   done.
GPGPU-Sim PTX: finding reconvergence points for '_Z7Kernel2PbS_S_S_i'...
GPGPU-Sim PTX: Finding dominators for '_Z7Kernel2PbS_S_S_i'...
GPGPU-Sim PTX: Finding immediate dominators for '_Z7Kernel2PbS_S_S_i'...
GPGPU-Sim PTX: Finding postdominators for '_Z7Kernel2PbS_S_S_i'...
GPGPU-Sim PTX: Finding immediate postdominators for '_Z7Kernel2PbS_S_S_i'...
GPGPU-Sim PTX: pre-decoding instructions for '_Z7Kernel2PbS_S_S_i'...
GPGPU-Sim PTX: reconvergence points for _Z7Kernel2PbS_S_S_i...
GPGPU-Sim PTX:  1 (potential) branch divergence @  PC=0x1f8 (_1.ptx:157) @%p1 bra $Lt_1_1794;
GPGPU-Sim PTX:    immediate post dominator      @  PC=0x2a0 (_1.ptx:185) exit;
GPGPU-Sim PTX:  2 (potential) branch divergence @  PC=0x230 (_1.ptx:164) @%p2 bra $Lt_1_1794;
GPGPU-Sim PTX:    immediate post dominator      @  PC=0x2a0 (_1.ptx:185) exit;
GPGPU-Sim PTX: ... end of reconvergence points for _Z7Kernel2PbS_S_S_i
GPGPU-Sim PTX: ... done pre-decoding instructions for '_Z7Kernel2PbS_S_S_i'.
GPGPU-Sim PTX: finished parsing EMBEDDED .ptx file _1.ptx
Adding _cuobjdump_1.ptx with cubin handle 1
GPGPU-Sim PTX: extracting embedded .ptx to temporary file "_ptx_OquQHr"
Running: cat _ptx_OquQHr | sed 's/.version 1.5/.version 1.4/' | sed 's/, texmode_independent//' | sed 's/\(\.extern \.const\[1\] .b8 \w\+\)\[\]/\1\[1\]/' | sed 's/const\[.\]/const\[0\]/g' > _ptx2_xzryjU
GPGPU-Sim PTX: generating ptxinfo using "$CUDA_INSTALL_PATH/bin/ptxas --gpu-name=sm_20 -v _ptx2_xzryjU --output-file  /dev/null 2> _ptx_OquQHrinfo"
GPGPU-Sim PTX: Kernel '_Z7Kernel2PbS_S_S_i' : regs=12, lmem=0, smem=0, cmem=68
GPGPU-Sim PTX: Kernel '_Z6KernelP4NodePiPbS2_S2_S1_i' : regs=15, lmem=0, smem=0, cmem=84
GPGPU-Sim PTX: removing ptxinfo using "rm -f _ptx_OquQHr _ptx2_xzryjU _ptx_OquQHrinfo"
GPGPU-Sim PTX: loading globals with explicit initializers... 
GPGPU-Sim PTX: finished loading globals (0 bytes total).
GPGPU-Sim PTX: loading constants with explicit initializers...  done.
GPGPU-Sim PTX: __cudaRegisterFunction _Z6KernelP4NodePiPbS2_S2_S1_i : hostFun 0x0x40169c, fat_cubin_handle = 1
Input file: ./data/graph32k500kedges_SV.txt
Reading File
Read File
Copied Everything to GPU memory

GPGPU-Sim PTX: cudaLaunch for 0x0x40169c (mode=performance simulation) on stream 0
GPGPU-Sim PTX: pushing kernel '_Z6KernelP4NodePiPbS2_S2_S1_i' to stream 0, gridDim= (63,1,1) blockDim = (512,1,1) 
kernel '_Z6KernelP4NodePiPbS2_S2_S1_i' transfer to GPU hardware scheduler
GPGPU-Sim uArch: Shader 1 bind to kernel 1 '_Z6KernelP4NodePiPbS2_S2_S1_i'
GPGPU-Sim uArch: CTA/core = 3, limited by: threads
GPGPU-Sim uArch: core:  1, cta: 0 initialized @(1,0)
GPGPU-Sim uArch: Shader 2 bind to kernel 1 '_Z6KernelP4NodePiPbS2_S2_S1_i'
GPGPU-Sim uArch: core:  2, cta: 0 initialized @(1,0)
GPGPU-Sim uArch: Shader 3 bind to kernel 1 '_Z6KernelP4NodePiPbS2_S2_S1_i'
GPGPU-Sim uArch: core:  3, cta: 0 initialized @(1,0)
GPGPU-Sim uArch: Shader 4 bind to kernel 1 '_Z6KernelP4NodePiPbS2_S2_S1_i'
GPGPU-Sim uArch: core:  4, cta: 0 initialized @(1,0)
GPGPU-Sim uArch: Shader 5 bind to kernel 1 '_Z6KernelP4NodePiPbS2_S2_S1_i'
GPGPU-Sim uArch: core:  5, cta: 0 initialized @(1,0)
GPGPU-Sim uArch: Shader 6 bind to kernel 1 '_Z6KernelP4NodePiPbS2_S2_S1_i'
GPGPU-Sim uArch: core:  6, cta: 0 initialized @(1,0)
GPGPU-Sim uArch: Shader 7 bind to kernel 1 '_Z6KernelP4NodePiPbS2_S2_S1_i'
GPGPU-Sim uArch: core:  7, cta: 0 initialized @(1,0)
GPGPU-Sim uArch: Shader 8 bind to kernel 1 '_Z6KernelP4NodePiPbS2_S2_S1_i'
GPGPU-Sim uArch: core:  8, cta: 0 initialized @(1,0)
GPGPU-Sim uArch: Shader 9 bind to kernel 1 '_Z6KernelP4NodePiPbS2_S2_S1_i'
GPGPU-Sim uArch: core:  9, cta: 0 initialized @(1,0)
GPGPU-Sim uArch: Shader 10 bind to kernel 1 '_Z6KernelP4NodePiPbS2_S2_S1_i'
GPGPU-Sim uArch: core: 10, cta: 0 initialized @(1,0)
GPGPU-Sim uArch: Shader 11 bind to kernel 1 '_Z6KernelP4NodePiPbS2_S2_S1_i'
GPGPU-Sim uArch: core: 11, cta: 0 initialized @(1,0)
GPGPU-Sim uArch: Shader 12 bind to kernel 1 '_Z6KernelP4NodePiPbS2_S2_S1_i'
GPGPU-Sim uArch: core: 12, cta: 0 initialized @(1,0)
GPGPU-Sim uArch: Shader 13 bind to kernel 1 '_Z6KernelP4NodePiPbS2_S2_S1_i'
GPGPU-Sim uArch: core: 13, cta: 0 initialized @(1,0)
GPGPU-Sim uArch: Shader 14 bind to kernel 1 '_Z6KernelP4NodePiPbS2_S2_S1_i'
GPGPU-Sim uArch: core: 14, cta: 0 initialized @(1,0)
GPGPU-Sim uArch: Shader 0 bind to kernel 1 '_Z6KernelP4NodePiPbS2_S2_S1_i'
GPGPU-Sim uArch: core:  0, cta: 0 initialized @(1,0)
GPGPU-Sim uArch: core:  1, cta: 1 initialized @(2,0)
GPGPU-Sim uArch: core:  2, cta: 1 initialized @(2,0)
GPGPU-Sim uArch: core:  3, cta: 1 initialized @(2,0)
GPGPU-Sim uArch: core:  4, cta: 1 initialized @(2,0)
GPGPU-Sim uArch: core:  5, cta: 1 initialized @(2,0)
GPGPU-Sim uArch: core:  6, cta: 1 initialized @(2,0)
GPGPU-Sim uArch: core:  7, cta: 1 initialized @(2,0)
GPGPU-Sim uArch: core:  8, cta: 1 initialized @(2,0)
GPGPU-Sim uArch: core:  9, cta: 1 initialized @(2,0)
GPGPU-Sim uArch: core: 10, cta: 1 initialized @(2,0)
GPGPU-Sim uArch: core: 11, cta: 1 initialized @(2,0)
GPGPU-Sim uArch: core: 12, cta: 1 initialized @(2,0)
GPGPU-Sim uArch: core: 13, cta: 1 initialized @(2,0)
GPGPU-Sim uArch: core: 14, cta: 1 initialized @(2,0)
GPGPU-Sim uArch: core:  0, cta: 1 initialized @(2,0)
GPGPU-Sim uArch: core:  1, cta: 2 initialized @(3,0)
GPGPU-Sim uArch: core:  2, cta: 2 initialized @(3,0)
GPGPU-Sim uArch: core:  3, cta: 2 initialized @(3,0)
GPGPU-Sim uArch: core:  4, cta: 2 initialized @(3,0)
GPGPU-Sim uArch: core:  5, cta: 2 initialized @(3,0)
GPGPU-Sim uArch: core:  6, cta: 2 initialized @(3,0)
GPGPU-Sim uArch: core:  7, cta: 2 initialized @(3,0)
GPGPU-Sim uArch: core:  8, cta: 2 initialized @(3,0)
GPGPU-Sim uArch: core:  9, cta: 2 initialized @(3,0)
GPGPU-Sim uArch: core: 10, cta: 2 initialized @(3,0)
GPGPU-Sim uArch: core: 11, cta: 2 initialized @(3,0)
GPGPU-Sim uArch: core: 12, cta: 2 initialized @(3,0)
GPGPU-Sim uArch: core: 13, cta: 2 initialized @(3,0)
GPGPU-Sim uArch: core: 14, cta: 2 initialized @(3,0)
GPGPU-Sim uArch: core:  0, cta: 2 initialized @(3,0)
GPGPU-Sim PTX: 100000 instructions simulated : ctaid=(22,0,0) tid=(447,0,0)
GPGPU-Sim uArch: cycles simulated: 500  inst.: 92000 (ipc=184.0) sim_rate=92000 (inst/sec) elapsed = 0:0:00:01 / Tue Apr 16 16:48:47 2019
GPGPU-Sim PTX: 200000 instructions simulated : ctaid=(26,0,0) tid=(415,0,0)
GPGPU-Sim uArch: cycles simulated: 1000  inst.: 240449 (ipc=240.4) sim_rate=120224 (inst/sec) elapsed = 0:0:00:02 / Tue Apr 16 16:48:48 2019
GPGPU-Sim PTX: 300000 instructions simulated : ctaid=(16,0,0) tid=(381,0,0)
GPGPU-Sim uArch: Shader 0 finished CTA #0 (1275,0), 2 CTAs running
GPGPU-Sim uArch: core:  0, cta: 0 initialized @(1276,0)
GPGPU-Sim uArch: Shader 3 finished CTA #0 (1277,0), 2 CTAs running
GPGPU-Sim uArch: core:  3, cta: 0 initialized @(1278,0)
GPGPU-Sim uArch: Shader 3 finished CTA #2 (1285,0), 2 CTAs running
GPGPU-Sim uArch: core:  3, cta: 2 initialized @(1286,0)
GPGPU-Sim uArch: Shader 4 finished CTA #0 (1291,0), 2 CTAs running
GPGPU-Sim uArch: core:  4, cta: 0 initialized @(1292,0)
GPGPU-Sim uArch: Shader 0 finished CTA #1 (1295,0), 2 CTAs running
GPGPU-Sim uArch: Shader 0 finished CTA #2 (1295,0), 1 CTAs running
GPGPU-Sim uArch: core:  0, cta: 1 initialized @(1296,0)
GPGPU-Sim uArch: core:  0, cta: 2 initialized @(1297,0)
GPGPU-Sim uArch: Shader 2 finished CTA #0 (1297,0), 2 CTAs running
GPGPU-Sim uArch: Shader 2 finished CTA #1 (1297,0), 1 CTAs running
GPGPU-Sim uArch: core:  2, cta: 0 initialized @(1298,0)
GPGPU-Sim uArch: core:  2, cta: 1 initialized @(1299,0)
GPGPU-Sim uArch: Shader 3 finished CTA #1 (1301,0), 2 CTAs running
GPGPU-Sim uArch: core:  3, cta: 1 initialized @(1302,0)
GPGPU-Sim uArch: Shader 5 finished CTA #0 (1303,0), 2 CTAs running
GPGPU-Sim uArch: core:  5, cta: 0 initialized @(1304,0)
GPGPU-Sim uArch: Shader 4 finished CTA #1 (1308,0), 2 CTAs running
GPGPU-Sim uArch: Shader 4 finished CTA #2 (1308,0), 1 CTAs running
GPGPU-Sim uArch: core:  4, cta: 1 initialized @(1309,0)
GPGPU-Sim uArch: Shader 1 finished CTA #1 (1309,0), 2 CTAs running
GPGPU-Sim uArch: core:  1, cta: 1 initialized @(1310,0)
GPGPU-Sim uArch: core:  4, cta: 2 initialized @(1310,0)
GPGPU-Sim uArch: Shader 6 finished CTA #0 (1315,0), 2 CTAs running
GPGPU-Sim uArch: core:  6, cta: 0 initialized @(1316,0)
GPGPU-Sim uArch: Shader 5 finished CTA #1 (1320,0), 2 CTAs running
GPGPU-Sim uArch: Shader 5 finished CTA #2 (1320,0), 1 CTAs running
GPGPU-Sim uArch: core:  5, cta: 1 initialized @(1321,0)
GPGPU-Sim uArch: Shader 11 finished CTA #0 (1321,0), 2 CTAs running
GPGPU-Sim uArch: Shader 11 finished CTA #1 (1321,0), 1 CTAs running
GPGPU-Sim uArch: core: 11, cta: 0 initialized @(1322,0)
GPGPU-Sim uArch: core:  5, cta: 2 initialized @(1322,0)
GPGPU-Sim uArch: core: 11, cta: 1 initialized @(1323,0)
GPGPU-Sim uArch: Shader 1 finished CTA #2 (1326,0), 2 CTAs running
GPGPU-Sim uArch: Shader 7 finished CTA #2 (1327,0), 2 CTAs running
GPGPU-Sim uArch: Shader 7 finished CTA #0 (1327,0), 1 CTAs running
GPGPU-Sim uArch: Shader 2 finished CTA #2 (1330,0), 2 CTAs running
GPGPU-Sim uArch: Shader 6 finished CTA #1 (1332,0), 2 CTAs running
GPGPU-Sim uArch: Shader 6 finished CTA #2 (1332,0), 1 CTAs running
GPGPU-Sim uArch: Shader 8 finished CTA #0 (1333,0), 2 CTAs running
GPGPU-Sim uArch: Shader 7 finished CTA #1 (1334,0), 0 CTAs running
GPGPU-Sim uArch: Shader 7 empty (release kernel 1 '_Z6KernelP4NodePiPbS2_S2_S1_i').
GPGPU-Sim uArch: Shader 8 finished CTA #1 (1336,0), 1 CTAs running
GPGPU-Sim uArch: Shader 9 finished CTA #0 (1339,0), 2 CTAs running
GPGPU-Sim uArch: Shader 9 finished CTA #1 (1339,0), 1 CTAs running
GPGPU-Sim uArch: Shader 8 finished CTA #2 (1340,0), 0 CTAs running
GPGPU-Sim uArch: Shader 8 empty (release kernel 1 '_Z6KernelP4NodePiPbS2_S2_S1_i').
GPGPU-Sim uArch: Shader 10 finished CTA #0 (1345,0), 2 CTAs running
GPGPU-Sim uArch: Shader 9 finished CTA #2 (1346,0), 0 CTAs running
GPGPU-Sim uArch: Shader 9 empty (release kernel 1 '_Z6KernelP4NodePiPbS2_S2_S1_i').
GPGPU-Sim uArch: Shader 10 finished CTA #1 (1348,0), 1 CTAs running
GPGPU-Sim uArch: Shader 12 finished CTA #0 (1351,0), 2 CTAs running
GPGPU-Sim uArch: Shader 10 finished CTA #2 (1352,0), 0 CTAs running
GPGPU-Sim uArch: Shader 10 empty (release kernel 1 '_Z6KernelP4NodePiPbS2_S2_S1_i').
GPGPU-Sim uArch: Shader 12 finished CTA #1 (1352,0), 1 CTAs running
GPGPU-Sim uArch: Shader 11 finished CTA #2 (1354,0), 2 CTAs running
GPGPU-Sim uArch: Shader 13 finished CTA #0 (1357,0), 2 CTAs running
GPGPU-Sim uArch: Shader 12 finished CTA #2 (1358,0), 0 CTAs running
GPGPU-Sim uArch: Shader 12 empty (release kernel 1 '_Z6KernelP4NodePiPbS2_S2_S1_i').
GPGPU-Sim uArch: Shader 13 finished CTA #1 (1360,0), 1 CTAs running
GPGPU-Sim uArch: Shader 14 finished CTA #0 (1363,0), 2 CTAs running
GPGPU-Sim uArch: Shader 14 finished CTA #1 (1363,0), 1 CTAs running
GPGPU-Sim uArch: Shader 13 finished CTA #2 (1364,0), 0 CTAs running
GPGPU-Sim uArch: Shader 13 empty (release kernel 1 '_Z6KernelP4NodePiPbS2_S2_S1_i').
GPGPU-Sim uArch: Shader 14 finished CTA #2 (1370,0), 0 CTAs running
GPGPU-Sim uArch: Shader 14 empty (release kernel 1 '_Z6KernelP4NodePiPbS2_S2_S1_i').
GPGPU-Sim PTX: 400000 instructions simulated : ctaid=(55,0,0) tid=(89,0,0)
GPGPU-Sim uArch: cycles simulated: 1500  inst.: 393732 (ipc=262.5) sim_rate=131244 (inst/sec) elapsed = 0:0:00:03 / Tue Apr 16 16:48:49 2019
GPGPU-Sim uArch: Shader 1 finished CTA #1 (1711,0), 1 CTAs running
GPGPU-Sim uArch: Shader 6 finished CTA #0 (1721,0), 0 CTAs running
GPGPU-Sim uArch: Shader 6 empty (release kernel 1 '_Z6KernelP4NodePiPbS2_S2_S1_i').
GPGPU-Sim uArch: Shader 2 finished CTA #0 (1761,0), 1 CTAs running
GPGPU-Sim uArch: Shader 0 finished CTA #0 (1773,0), 2 CTAs running
GPGPU-Sim uArch: Shader 11 finished CTA #0 (1791,0), 1 CTAs running
GPGPU-Sim uArch: Shader 3 finished CTA #0 (1798,0), 2 CTAs running
GPGPU-Sim uArch: Shader 11 finished CTA #1 (1798,0), 0 CTAs running
GPGPU-Sim uArch: Shader 11 empty (release kernel 1 '_Z6KernelP4NodePiPbS2_S2_S1_i').
GPGPU-Sim uArch: Shader 4 finished CTA #0 (1800,0), 2 CTAs running
GPGPU-Sim uArch: Shader 2 finished CTA #1 (1807,0), 0 CTAs running
GPGPU-Sim uArch: Shader 2 empty (release kernel 1 '_Z6KernelP4NodePiPbS2_S2_S1_i').
GPGPU-Sim uArch: Shader 5 finished CTA #0 (1812,0), 2 CTAs running
GPGPU-Sim uArch: Shader 0 finished CTA #1 (1838,0), 1 CTAs running
GPGPU-Sim uArch: Shader 3 finished CTA #2 (1844,0), 1 CTAs running
GPGPU-Sim uArch: Shader 4 finished CTA #1 (1854,0), 1 CTAs running
GPGPU-Sim uArch: Shader 5 finished CTA #1 (1865,0), 1 CTAs running
GPGPU-Sim uArch: Shader 0 finished CTA #2 (1898,0), 0 CTAs running
GPGPU-Sim uArch: Shader 0 empty (release kernel 1 '_Z6KernelP4NodePiPbS2_S2_S1_i').
GPGPU-Sim uArch: Shader 3 finished CTA #1 (1907,0), 0 CTAs running
GPGPU-Sim uArch: Shader 3 empty (release kernel 1 '_Z6KernelP4NodePiPbS2_S2_S1_i').
GPGPU-Sim uArch: Shader 4 finished CTA #2 (1910,0), 0 CTAs running
GPGPU-Sim uArch: Shader 4 empty (release kernel 1 '_Z6KernelP4NodePiPbS2_S2_S1_i').
GPGPU-Sim uArch: Shader 5 finished CTA #2 (1924,0), 0 CTAs running
GPGPU-Sim uArch: Shader 5 empty (release kernel 1 '_Z6KernelP4NodePiPbS2_S2_S1_i').
GPGPU-Sim uArch: cycles simulated: 5500  inst.: 450209 (ipc=81.9) sim_rate=112552 (inst/sec) elapsed = 0:0:00:04 / Tue Apr 16 16:48:50 2019
GPGPU-Sim uArch: Shader 1 finished CTA #0 (8375,0), 0 CTAs running
GPGPU-Sim uArch: Shader 1 empty (release kernel 1 '_Z6KernelP4NodePiPbS2_S2_S1_i').
GPGPU-Sim uArch: GPU detected kernel '_Z6KernelP4NodePiPbS2_S2_S1_i' finished on shader 1.

GPGPU-Sim PTX: cudaLaunch for 0x0x4017d8 (mode=performance simulation) on stream 0
GPGPU-Sim PTX: pushing kernel '_Z7Kernel2PbS_S_S_i' to stream 0, gridDim= (63,1,1) blockDim = (512,1,1) 
kernel_name = _Z6KernelP4NodePiPbS2_S2_S1_i 
kernel_launch_uid = 1 
gpu_sim_cycle = 8376
gpu_sim_insn = 450436
gpu_ipc =      53.7770
gpu_tot_sim_cycle = 8376
gpu_tot_sim_insn = 450436
gpu_tot_ipc =      53.7770
gpu_tot_issued_cta = 0
gpu_stall_dramfull = 298
gpu_stall_icnt2sh    = 167
gpu_total_sim_rate=112609

========= Core cache stats =========
L1I_cache:
	L1I_total_cache_accesses = 10218
	L1I_total_cache_misses = 962
	L1I_total_cache_miss_rate = 0.0941
	L1I_total_cache_pending_hits = 0
	L1I_total_cache_reservation_fails = 6744
L1D_cache:
	L1D_cache_core[0]: Access = 96, Miss = 24, Miss_rate = 0.250, Pending_hits = 72, Reservation_fails = 0
	L1D_cache_core[1]: Access = 172, Miss = 63, Miss_rate = 0.366, Pending_hits = 48, Reservation_fails = 0
	L1D_cache_core[2]: Access = 80, Miss = 20, Miss_rate = 0.250, Pending_hits = 60, Reservation_fails = 0
	L1D_cache_core[3]: Access = 96, Miss = 24, Miss_rate = 0.250, Pending_hits = 72, Reservation_fails = 0
	L1D_cache_core[4]: Access = 96, Miss = 24, Miss_rate = 0.250, Pending_hits = 72, Reservation_fails = 0
	L1D_cache_core[5]: Access = 96, Miss = 24, Miss_rate = 0.250, Pending_hits = 72, Reservation_fails = 0
	L1D_cache_core[6]: Access = 64, Miss = 16, Miss_rate = 0.250, Pending_hits = 48, Reservation_fails = 0
	L1D_cache_core[7]: Access = 48, Miss = 12, Miss_rate = 0.250, Pending_hits = 36, Reservation_fails = 0
	L1D_cache_core[8]: Access = 48, Miss = 12, Miss_rate = 0.250, Pending_hits = 36, Reservation_fails = 0
	L1D_cache_core[9]: Access = 48, Miss = 12, Miss_rate = 0.250, Pending_hits = 36, Reservation_fails = 0
	L1D_cache_core[10]: Access = 48, Miss = 12, Miss_rate = 0.250, Pending_hits = 36, Reservation_fails = 0
	L1D_cache_core[11]: Access = 72, Miss = 18, Miss_rate = 0.250, Pending_hits = 54, Reservation_fails = 0
	L1D_cache_core[12]: Access = 48, Miss = 12, Miss_rate = 0.250, Pending_hits = 36, Reservation_fails = 0
	L1D_cache_core[13]: Access = 48, Miss = 12, Miss_rate = 0.250, Pending_hits = 36, Reservation_fails = 0
	L1D_cache_core[14]: Access = 48, Miss = 12, Miss_rate = 0.250, Pending_hits = 36, Reservation_fails = 0
	L1D_total_cache_accesses = 1108
	L1D_total_cache_misses = 297
	L1D_total_cache_miss_rate = 0.2681
	L1D_total_cache_pending_hits = 750
	L1D_total_cache_reservation_fails = 0
	L1D_cache_data_port_util = 0.002
	L1D_cache_fill_port_util = 0.009
L1C_cache:
	L1C_total_cache_accesses = 2041
	L1C_total_cache_misses = 480
	L1C_total_cache_miss_rate = 0.2352
	L1C_total_cache_pending_hits = 0
	L1C_total_cache_reservation_fails = 3411
L1T_cache:
	L1T_total_cache_accesses = 0
	L1T_total_cache_misses = 0
	L1T_total_cache_pending_hits = 0
	L1T_total_cache_reservation_fails = 0

Total_core_cache_stats:
	Total_core_cache_stats_breakdown[GLOBAL_ACC_R][HIT] = 60
	Total_core_cache_stats_breakdown[GLOBAL_ACC_R][HIT_RESERVED] = 750
	Total_core_cache_stats_breakdown[GLOBAL_ACC_R][MISS] = 267
	Total_core_cache_stats_breakdown[CONST_ACC_R][HIT] = 1561
	Total_core_cache_stats_breakdown[CONST_ACC_R][MISS] = 480
	Total_core_cache_stats_breakdown[CONST_ACC_R][RESERVATION_FAIL] = 3411
	Total_core_cache_stats_breakdown[GLOBAL_ACC_W][HIT] = 1
	Total_core_cache_stats_breakdown[GLOBAL_ACC_W][MISS] = 30
	Total_core_cache_stats_breakdown[INST_ACC_R][HIT] = 9256
	Total_core_cache_stats_breakdown[INST_ACC_R][MISS] = 962
	Total_core_cache_stats_breakdown[INST_ACC_R][RESERVATION_FAIL] = 6744
Shader 0 warp_id issue ditsribution:
warp_id:
0, 1, 2, 3, 4, 5, 6, 7, 8, 9, 10, 11, 12, 13, 14, 15, 16, 17, 18, 19, 20, 21, 22, 23, 24, 25, 26, 27, 28, 29, 30, 31, 32, 33, 34, 35, 36, 37, 38, 39, 40, 41, 42, 43, 44, 45, 46, 47, 
distro:
30, 30, 30, 30, 30, 30, 30, 30, 30, 30, 30, 30, 30, 30, 30, 30, 30, 30, 30, 30, 30, 30, 30, 30, 30, 30, 30, 30, 30, 30, 30, 30, 30, 30, 30, 30, 30, 30, 30, 30, 30, 30, 30, 30, 30, 30, 30, 30, 
gpgpu_n_tot_thrd_icount = 495040
gpgpu_n_tot_w_icount = 15470
gpgpu_n_stall_shd_mem = 3411
gpgpu_n_mem_read_local = 0
gpgpu_n_mem_write_local = 0
gpgpu_n_mem_read_global = 267
gpgpu_n_mem_write_global = 31
gpgpu_n_mem_texture = 0
gpgpu_n_mem_const = 15
gpgpu_n_load_insn  = 32077
gpgpu_n_store_insn = 31
gpgpu_n_shmem_insn = 0
gpgpu_n_tex_insn = 0
gpgpu_n_const_mem_insn = 0
gpgpu_n_param_mem_insn = 64289
gpgpu_n_shmem_bkconflict = 0
gpgpu_n_cache_bkconflict = 0
gpgpu_n_intrawarp_mshr_merge = 0
gpgpu_n_cmem_portconflict = 3411
gpgpu_stall_shd_mem[c_mem][bk_conf] = 3411
gpgpu_stall_shd_mem[c_mem][mshr_rc] = 0
gpgpu_stall_shd_mem[c_mem][icnt_rc] = 0
gpgpu_stall_shd_mem[c_mem][data_port_stall] = 0
gpgpu_stall_shd_mem[t_mem][mshr_rc] = 0
gpgpu_stall_shd_mem[t_mem][icnt_rc] = 0
gpgpu_stall_shd_mem[t_mem][data_port_stall] = 0
gpgpu_stall_shd_mem[s_mem][bk_conf] = 0
gpgpu_stall_shd_mem[gl_mem][bk_conf] = 0
gpgpu_stall_shd_mem[gl_mem][coal_stall] = 0
gpgpu_stall_shd_mem[gl_mem][data_port_stall] = 0
gpgpu_stall_shd_mem[g_mem_ld][mshr_rc] = 0
gpgpu_stall_shd_mem[g_mem_ld][icnt_rc] = 0
gpgpu_stall_shd_mem[g_mem_ld][wb_icnt_rc] = 0
gpgpu_stall_shd_mem[g_mem_ld][wb_rsrv_fail] = 0
gpgpu_stall_shd_mem[g_mem_st][mshr_rc] = 0
gpgpu_stall_shd_mem[g_mem_st][icnt_rc] = 0
gpgpu_stall_shd_mem[g_mem_st][wb_icnt_rc] = 0
gpgpu_stall_shd_mem[g_mem_st][wb_rsrv_fail] = 0
gpgpu_stall_shd_mem[l_mem_ld][mshr_rc] = 0
gpgpu_stall_shd_mem[l_mem_ld][icnt_rc] = 0
gpgpu_stall_shd_mem[l_mem_ld][wb_icnt_rc] = 0
gpgpu_stall_shd_mem[l_mem_ld][wb_rsrv_fail] = 0
gpgpu_stall_shd_mem[l_mem_st][mshr_rc] = 0
gpgpu_stall_shd_mem[l_mem_st][icnt_rc] = 0
gpgpu_stall_shd_mem[l_mem_ld][wb_icnt_rc] = 0
gpgpu_stall_shd_mem[l_mem_ld][wb_rsrv_fail] = 0
gpu_reg_bank_conflict_stalls = 0
Warp Occupancy Distribution:
Stall:6887	W0_Idle:22001	W0_Scoreboard:17280	W1:406	W2:0	W3:0	W4:0	W5:0	W6:0	W7:0	W8:0	W9:0	W10:0	W11:0	W12:0	W13:0	W14:0	W15:0	W16:0	W17:0	W18:0	W19:0	W20:0	W21:0	W22:0	W23:0	W24:0	W25:0	W26:0	W27:0	W28:0	W29:0	W30:0	W31:0	W32:15064
traffic_breakdown_coretomem[CONST_ACC_R] = 120 {8:15,}
traffic_breakdown_coretomem[GLOBAL_ACC_R] = 2136 {8:267,}
traffic_breakdown_coretomem[GLOBAL_ACC_W] = 1240 {40:31,}
traffic_breakdown_coretomem[INST_ACC_R] = 256 {8:32,}
traffic_breakdown_memtocore[CONST_ACC_R] = 1080 {72:15,}
traffic_breakdown_memtocore[GLOBAL_ACC_R] = 36312 {136:267,}
traffic_breakdown_memtocore[GLOBAL_ACC_W] = 248 {8:31,}
traffic_breakdown_memtocore[INST_ACC_R] = 4352 {136:32,}
maxmrqlatency = 22 
maxdqlatency = 0 
maxmflatency = 290 
averagemflatency = 264 
max_icnt2mem_latency = 36 
max_icnt2sh_latency = 8375 
mrq_lat_table:235 	12 	50 	26 	7 	0 	0 	0 	0 	0 	0 	0 	0 	0 	0 	0 	0 	0 	0 	0 	0 	0 	0 	0 	0 	0 	0 	0 	0 	0 	0 	0 	
dq_lat_table:0 	0 	0 	0 	0 	0 	0 	0 	0 	0 	0 	0 	0 	0 	0 	0 	0 	0 	0 	0 	0 	0 	0 	0 	0 	0 	0 	0 	0 	0 	0 	0 	
mf_lat_table:0 	0 	0 	0 	0 	0 	0 	36 	277 	0 	0 	0 	0 	0 	0 	0 	0 	0 	0 	0 	0 	0 	0 	0 	0 	0 	0 	0 	0 	0 	0 	0 	
icnt2mem_lat_table:0 	0 	0 	334 	8 	3 	0 	0 	0 	0 	0 	0 	0 	0 	0 	0 	0 	0 	0 	0 	0 	0 	0 	0 	
icnt2sh_lat_table:0 	0 	0 	205 	76 	1 	0 	0 	0 	0 	1 	6 	22 	2 	0 	0 	0 	0 	0 	0 	0 	0 	0 	0 	
mf_lat_pw_table:0 	0 	0 	0 	0 	0 	0 	9 	6 	0 	0 	0 	0 	0 	0 	0 	0 	0 	0 	0 	0 	0 	0 	0 	0 	0 	0 	0 	0 	0 	0 	0 	
maximum concurrent accesses to same row:
dram[0]:         1         0         0         0         0         0         0         0         0         0         0         0         0         0         0         0 
dram[1]:         0         0         0         0         0         0         0         0         0         0         0         0         0         0         0         0 
dram[2]:         0         0         0         0         0         1         0         0         0         0         0         0         0         0         0         0 
dram[3]:         0         0         0         0         0         0         0         0         0         0         0         0         0         0         0         0 
dram[4]:         0         0         0         0         0         0         0         0         0         0         0         0         0         0         0         0 
dram[5]:         0         0         0         0         0         0         0         0         0         0         0         0         0         0         0         0 
maximum service time to same row:
dram[0]:       621         0       949       951      1119      1637      2751      5441         0      7547      8344         0         0         0      1899         0 
dram[1]:      1197         0       915       938      1029      1747      3924         0         0         0      3050         0         0         0         0         0 
dram[2]:         0         0       938       954      1066      1576         0      3521      7154         0         0         0         0         0         0         0 
dram[3]:         0         0       916       935      1668      1691         0      3118         0      6622         0      5835         0         0         0         0 
dram[4]:         0         0       943       963      1678      1701         0      2444      3856         0         0         0         0         0         0         0 
dram[5]:         0         0       925       919      1624      1750         0      7616         0         0      7950      3453         0         0         0         0 
average row accesses per activate:
dram[0]:  1.000000      -nan 14.000000 14.000000  8.000000 11.000000  4.000000  2.000000      -nan  2.000000  2.000000      -nan      -nan      -nan  1.000000      -nan 
dram[1]:  2.000000      -nan 14.000000 14.000000 10.000000  9.000000  4.000000      -nan      -nan      -nan  4.000000      -nan      -nan      -nan      -nan      -nan 
dram[2]:      -nan      -nan 14.000000 14.000000  8.000000  6.000000      -nan  3.000000  2.000000      -nan      -nan      -nan      -nan      -nan      -nan      -nan 
dram[3]:      -nan      -nan 14.000000 16.000000 10.000000  6.000000      -nan  2.000000      -nan  2.000000      -nan  2.000000      -nan      -nan      -nan      -nan 
dram[4]:      -nan      -nan 14.000000 16.000000 11.000000  7.000000      -nan  1.000000  2.000000      -nan      -nan      -nan      -nan      -nan      -nan      -nan 
dram[5]:      -nan      -nan 14.000000 16.000000 10.000000  9.000000      -nan  1.000000      -nan      -nan  2.000000  4.000000      -nan      -nan      -nan      -nan 
average row locality = 330/46 = 7.173913
number of total memory accesses made:
dram[0]:         0         0         0         0         0         0         0         0         0         0         0         0         0         0         0         0 
dram[1]:         0         0         0         0         0         0         0         0         0         0         0         0         0         0         0         0 
dram[2]:         0         0         0         0         0         0         0         0         0         0         0         0         0         0         0         0 
dram[3]:         0         0         0         0         0         0         0         0         0         0         0         0         0         0         0         0 
dram[4]:         0         0         0         0         0         0         0         0         0         0         0         0         0         0         0         0 
dram[5]:         0         0         0         0         0         0         0         0         0         0         0         0         0         0         0         0 
total accesses: 0
min_bank_accesses = 0!
min_chip_accesses = 0!
number of total read accesses:
dram[0]:         3         0        14        14         8         9         3         1         0         1         1         0         0         0         1         0 
dram[1]:         2         0        14        14         9         8         3         0         0         0         2         0         0         0         0         0 
dram[2]:         0         0        14        14         7        10         0         2         1         0         0         0         0         0         0         0 
dram[3]:         0         0        14        16         8         6         0         2         0         1         0         1         0         0         0         0 
dram[4]:         0         0        14        16         9         7         0         1         1         0         0         0         0         0         0         0 
dram[5]:         0         0        14        16         8         8         0         1         0         0         1         2         0         0         0         0 
total reads: 301
min_bank_accesses = 0!
chip skew: 55/48 = 1.15
number of total write accesses:
dram[0]:         0         0         0         0         0         2         1         1         0         1         1         0         0         0         0         0 
dram[1]:         0         0         0         0         1         1         1         0         0         0         2         0         0         0         0         0 
dram[2]:         0         0         0         0         1         2         0         1         1         0         0         0         0         0         0         0 
dram[3]:         0         0         0         0         2         0         0         0         0         1         0         1         0         0         0         0 
dram[4]:         0         0         0         0         2         0         0         0         1         0         0         0         0         0         0         0 
dram[5]:         0         0         0         0         2         1         0         0         0         0         1         2         0         0         0         0 
total reads: 29
min_bank_accesses = 0!
chip skew: 6/3 = 2.00
average mf latency per bank:
dram[0]:       1314    none         263       268       264       211       193       126    none         126       126    none      none      none         268    none  
dram[1]:          0    none         264       269       237       233       193    none      none      none         124    none      none      none      none      none  
dram[2]:     none      none         263       272       228       221    none         171       126    none      none      none      none      none      none      none  
dram[3]:     none      none         263       280       206       274    none         263    none         126    none         126    none      none      none      none  
dram[4]:     none      none         261       268       225       275    none         268       126    none      none      none      none      none      none      none  
dram[5]:     none      none         262       265       207       238    none         268    none      none         126       124    none      none      none      none  
maximum mf latency per bank:
dram[0]:        283         0       271       290       272       268       268       252         0       252       252         0         0         0       268         0
dram[1]:          0         0       281       285       289       275       268         0         0         0       252         0         0         0         0         0
dram[2]:          0         0       277       282       271       283         0       268       252         0         0         0         0         0         0         0
dram[3]:          0         0       272       283       268       280         0       268         0       252         0       252         0         0         0         0
dram[4]:          0         0       271       287       276       282         0       268       252         0         0         0         0         0         0         0
dram[5]:          0         0       269       277       268       286         0       268         0         0       252       252         0         0         0         0

Number of Memory Banks Accessed per Memory Operation per Warp (from 0):
0	0	0	0	0	0	0	0	0	0	0	0	0	0	0	0	0	0	0	0	0	0	0	0	0	0	0	0	0	0	0	0	0	0	0	0	0	0	0	0	0	0	0	0	0	0	0	0	0	0	0	0	0	0	0	0	0	0	0	0	0	0	0	0	0	0	0	0	0	0	0	0	0	0	0	0	0	0	0	0	0	0	0	0	0	0	0	0	0	0	0	0	0	0	0	0	
Average # of Memory Banks Accessed per Memory Operation per Warp=-nan

position of mrq chosen
0	0	0	0	0	0	0	0	0	0	0	0	0	0	0	0	

average position of mrq chosen = -nan
Memory Partition 0: 
Cache L2_bank_000:
MSHR contents

Cache L2_bank_001:
MSHR contents

In Dram Latency Queue (total = 0): 
DRAM[0]: 16 bks, busW=4 BL=8 CL=12, tRRD=2 tCCD=6, tRCD=12 tRAS=28 tRP=12 tRC=40
n_cmd=11056 n_nop=10926 n_act=12 n_pre=2 n_req=61 n_rd=110 n_write=6 bw_util=0.02098
n_activity=849 dram_eff=0.2733
bk0: 6a 10985i bk1: 0a 11055i bk2: 28a 10971i bk3: 28a 10913i bk4: 16a 11008i bk5: 18a 10976i bk6: 6a 11020i bk7: 2a 11032i bk8: 0a 11054i bk9: 2a 11031i bk10: 2a 11031i bk11: 0a 11054i bk12: 0a 11055i bk13: 0a 11055i bk14: 2a 11041i bk15: 0a 11057i 
dram_util_bins: 0 0 0 0 0 0 0 0 0 0
dram_eff_bins: 0 0 0 0 0 0 0 0 0 0
mrqq: max=2 avg=0.00868307
Memory Partition 1: 
Cache L2_bank_002:
MSHR contents

Cache L2_bank_003:
MSHR contents

In Dram Latency Queue (total = 0): 
DRAM[1]: 16 bks, busW=4 BL=8 CL=12, tRRD=2 tCCD=6, tRCD=12 tRAS=28 tRP=12 tRC=40
n_cmd=11056 n_nop=10940 n_act=7 n_pre=0 n_req=57 n_rd=104 n_write=5 bw_util=0.01972
n_activity=651 dram_eff=0.3349
bk0: 4a 11036i bk1: 0a 11057i bk2: 28a 10972i bk3: 28a 10928i bk4: 18a 10964i bk5: 16a 10995i bk6: 6a 11021i bk7: 0a 11056i bk8: 0a 11056i bk9: 0a 11056i bk10: 4a 11018i bk11: 0a 11054i bk12: 0a 11054i bk13: 0a 11055i bk14: 0a 11055i bk15: 0a 11057i 
dram_util_bins: 0 0 0 0 0 0 0 0 0 0
dram_eff_bins: 0 0 0 0 0 0 0 0 0 0
mrqq: max=3 avg=0.0119392
Memory Partition 2: 
Cache L2_bank_004:
MSHR contents

Cache L2_bank_005:
MSHR contents
MSHR: tag=0x80240c00, atomic=0 1 entries : 0x7f0e139fe980 :  mf: uid= 23551, sid01:w00, part=2, addr=0x80240c20, load , size=32, unknown  status = IN_PARTITION_DRAM (8373), 

In Dram Latency Queue (total = 0): 
DRAM[2]: 16 bks, busW=4 BL=8 CL=12, tRRD=2 tCCD=6, tRCD=12 tRAS=28 tRP=12 tRC=40
n_cmd=11056 n_nop=10947 n_act=7 n_pre=1 n_req=53 n_rd=96 n_write=5 bw_util=0.01827
n_activity=588 dram_eff=0.3435
bk0: 0a 11057i bk1: 0a 11059i bk2: 28a 10977i bk3: 28a 10914i bk4: 14a 10995i bk5: 20a 10944i bk6: 0a 11055i bk7: 4a 11023i bk8: 2a 11030i bk9: 0a 11053i bk10: 0a 11053i bk11: 0a 11053i bk12: 0a 11053i bk13: 0a 11055i bk14: 0a 11056i bk15: 0a 11057i 
dram_util_bins: 0 0 0 0 0 0 0 0 0 0
dram_eff_bins: 0 0 0 0 0 0 0 0 0 0
mrqq: max=2 avg=0.0144718
Memory Partition 3: 
Cache L2_bank_006:
MSHR contents

Cache L2_bank_007:
MSHR contents

In Dram Latency Queue (total = 0): 
DRAM[3]: 16 bks, busW=4 BL=8 CL=12, tRRD=2 tCCD=6, tRCD=12 tRAS=28 tRP=12 tRC=40
n_cmd=11056 n_nop=10949 n_act=7 n_pre=0 n_req=52 n_rd=96 n_write=4 bw_util=0.01809
n_activity=533 dram_eff=0.3752
bk0: 0a 11058i bk1: 0a 11059i bk2: 28a 10968i bk3: 32a 10889i bk4: 16a 10986i bk5: 12a 11005i bk6: 0a 11056i bk7: 4a 11036i bk8: 0a 11055i bk9: 2a 11032i bk10: 0a 11054i bk11: 2a 11032i bk12: 0a 11053i bk13: 0a 11054i bk14: 0a 11054i bk15: 0a 11055i 
dram_util_bins: 0 0 0 0 0 0 0 0 0 0
dram_eff_bins: 0 0 0 0 0 0 0 0 0 0
mrqq: max=2 avg=0.0170948
Memory Partition 4: 
Cache L2_bank_008:
MSHR contents

Cache L2_bank_009:
MSHR contents

In Dram Latency Queue (total = 0): 
DRAM[4]: 16 bks, busW=4 BL=8 CL=12, tRRD=2 tCCD=6, tRCD=12 tRAS=28 tRP=12 tRC=40
n_cmd=11056 n_nop=10951 n_act=6 n_pre=0 n_req=51 n_rd=96 n_write=3 bw_util=0.01791
n_activity=522 dram_eff=0.3793
bk0: 0a 11058i bk1: 0a 11059i bk2: 28a 10981i bk3: 32a 10923i bk4: 18a 10982i bk5: 14a 11003i bk6: 0a 11055i bk7: 2a 11040i bk8: 2a 11032i bk9: 0a 11053i bk10: 0a 11054i bk11: 0a 11055i bk12: 0a 11055i bk13: 0a 11055i bk14: 0a 11055i bk15: 0a 11055i 
dram_util_bins: 0 0 0 0 0 0 0 0 0 0
dram_eff_bins: 0 0 0 0 0 0 0 0 0 0
mrqq: max=3 avg=0.0136577
Memory Partition 5: 
Cache L2_bank_010:
MSHR contents

Cache L2_bank_011:
MSHR contents

In Dram Latency Queue (total = 0): 
DRAM[5]: 16 bks, busW=4 BL=8 CL=12, tRRD=2 tCCD=6, tRCD=12 tRAS=28 tRP=12 tRC=40
n_cmd=11056 n_nop=10943 n_act=7 n_pre=0 n_req=56 n_rd=100 n_write=6 bw_util=0.01918
n_activity=622 dram_eff=0.3408
bk0: 0a 11057i bk1: 0a 11060i bk2: 28a 10978i bk3: 32a 10911i bk4: 16a 10985i bk5: 16a 10993i bk6: 0a 11054i bk7: 2a 11038i bk8: 0a 11053i bk9: 0a 11054i bk10: 2a 11033i bk11: 4a 11018i bk12: 0a 11054i bk13: 0a 11055i bk14: 0a 11056i bk15: 0a 11056i 
dram_util_bins: 0 0 0 0 0 0 0 0 0 0
dram_eff_bins: 0 0 0 0 0 0 0 0 0 0
mrqq: max=2 avg=0.00832127

========= L2 cache stats =========
L2_cache_bank[0]: Access = 58, Miss = 30, Miss_rate = 0.517, Pending_hits = 6, Reservation_fails = 227
L2_cache_bank[1]: Access = 25, Miss = 25, Miss_rate = 1.000, Pending_hits = 0, Reservation_fails = 0
L2_cache_bank[2]: Access = 44, Miss = 30, Miss_rate = 0.682, Pending_hits = 3, Reservation_fails = 114
L2_cache_bank[3]: Access = 22, Miss = 22, Miss_rate = 1.000, Pending_hits = 0, Reservation_fails = 0
L2_cache_bank[4]: Access = 22, Miss = 22, Miss_rate = 1.000, Pending_hits = 0, Reservation_fails = 0
L2_cache_bank[5]: Access = 26, Miss = 26, Miss_rate = 1.000, Pending_hits = 0, Reservation_fails = 0
L2_cache_bank[6]: Access = 22, Miss = 22, Miss_rate = 1.000, Pending_hits = 0, Reservation_fails = 0
L2_cache_bank[7]: Access = 27, Miss = 26, Miss_rate = 0.963, Pending_hits = 0, Reservation_fails = 0
L2_cache_bank[8]: Access = 25, Miss = 24, Miss_rate = 0.960, Pending_hits = 0, Reservation_fails = 0
L2_cache_bank[9]: Access = 24, Miss = 24, Miss_rate = 1.000, Pending_hits = 0, Reservation_fails = 0
L2_cache_bank[10]: Access = 23, Miss = 23, Miss_rate = 1.000, Pending_hits = 0, Reservation_fails = 0
L2_cache_bank[11]: Access = 27, Miss = 27, Miss_rate = 1.000, Pending_hits = 0, Reservation_fails = 0
L2_total_cache_accesses = 345
L2_total_cache_misses = 301
L2_total_cache_miss_rate = 0.8725
L2_total_cache_pending_hits = 9
L2_total_cache_reservation_fails = 341
L2_total_cache_breakdown:
	L2_cache_stats_breakdown[GLOBAL_ACC_R][MISS] = 267
	L2_cache_stats_breakdown[CONST_ACC_R][HIT] = 11
	L2_cache_stats_breakdown[CONST_ACC_R][HIT_RESERVED] = 3
	L2_cache_stats_breakdown[CONST_ACC_R][MISS] = 1
	L2_cache_stats_breakdown[CONST_ACC_R][RESERVATION_FAIL] = 111
	L2_cache_stats_breakdown[GLOBAL_ACC_W][HIT] = 2
	L2_cache_stats_breakdown[GLOBAL_ACC_W][MISS] = 29
	L2_cache_stats_breakdown[INST_ACC_R][HIT] = 22
	L2_cache_stats_breakdown[INST_ACC_R][HIT_RESERVED] = 6
	L2_cache_stats_breakdown[INST_ACC_R][MISS] = 4
	L2_cache_stats_breakdown[INST_ACC_R][RESERVATION_FAIL] = 230
L2_cache_data_port_util = 0.001
L2_cache_fill_port_util = 0.012

icnt_total_pkts_mem_to_simt=1571
icnt_total_pkts_simt_to_mem=376
LD_mem_lat_dist  0 0 0 0 0 0 0 0 0 0 0 0 0 0 0 0 0 0 0 0 0 0 0 0 0 0 0
ST_mem_lat_dist  0 0 0 0 0 0 0 0 0 0 0 0 0 0 0 0 0 0 0 0 0 0 0 0 0 0 0
----------------------------Interconnect-DETAILS--------------------------------
Class 0:
Packet latency average = 9.74928
	minimum = 6
	maximum = 34
Network latency average = 9.22899
	minimum = 6
	maximum = 34
Slowest packet = 14
Flit latency average = 7.80072
	minimum = 6
	maximum = 34
Slowest flit = 14
Fragmentation average = 0
	minimum = 0
	maximum = 0
Injected packet rate average = 0.00305105
	minimum = 0.00179083 (at node 7)
	maximum = 0.00823782 (at node 1)
Accepted packet rate average = 0.00305105
	minimum = 0.00179083 (at node 7)
	maximum = 0.00823782 (at node 1)
Injected flit rate average = 0.00860925
	minimum = 0.00179083 (at node 7)
	maximum = 0.030086 (at node 15)
Accepted flit rate average= 0.00860925
	minimum = 0.00274594 (at node 18)
	maximum = 0.0261461 (at node 1)
Injected packet length average = 2.82174
Accepted packet length average = 2.82174
Total in-flight flits = 0 (0 measured)
====== Overall Traffic Statistics ======
====== Traffic class 0 ======
Packet latency average = 9.74928 (1 samples)
	minimum = 6 (1 samples)
	maximum = 34 (1 samples)
Network latency average = 9.22899 (1 samples)
	minimum = 6 (1 samples)
	maximum = 34 (1 samples)
Flit latency average = 7.80072 (1 samples)
	minimum = 6 (1 samples)
	maximum = 34 (1 samples)
Fragmentation average = 0 (1 samples)
	minimum = 0 (1 samples)
	maximum = 0 (1 samples)
Injected packet rate average = 0.00305105 (1 samples)
	minimum = 0.00179083 (1 samples)
	maximum = 0.00823782 (1 samples)
Accepted packet rate average = 0.00305105 (1 samples)
	minimum = 0.00179083 (1 samples)
	maximum = 0.00823782 (1 samples)
Injected flit rate average = 0.00860925 (1 samples)
	minimum = 0.00179083 (1 samples)
	maximum = 0.030086 (1 samples)
Accepted flit rate average = 0.00860925 (1 samples)
	minimum = 0.00274594 (1 samples)
	maximum = 0.0261461 (1 samples)
Injected packet size average = 2.82174 (1 samples)
Accepted packet size average = 2.82174 (1 samples)
Hops average = 1 (1 samples)
----------------------------END-of-Interconnect-DETAILS-------------------------


gpgpu_simulation_time = 0 days, 0 hrs, 0 min, 4 sec (4 sec)
gpgpu_simulation_rate = 112609 (inst/sec)
gpgpu_simulation_rate = 2094 (cycle/sec)
kernel '_Z7Kernel2PbS_S_S_i' transfer to GPU hardware scheduler
GPGPU-Sim uArch: Shader 12 bind to kernel 2 '_Z7Kernel2PbS_S_S_i'
GPGPU-Sim uArch: CTA/core = 3, limited by: threads
GPGPU-Sim uArch: core: 12, cta: 0 initialized @(1,8376)
GPGPU-Sim uArch: Shader 13 bind to kernel 2 '_Z7Kernel2PbS_S_S_i'
GPGPU-Sim uArch: core: 13, cta: 0 initialized @(1,8376)
GPGPU-Sim uArch: Shader 14 bind to kernel 2 '_Z7Kernel2PbS_S_S_i'
GPGPU-Sim uArch: core: 14, cta: 0 initialized @(1,8376)
GPGPU-Sim uArch: Shader 0 bind to kernel 2 '_Z7Kernel2PbS_S_S_i'
GPGPU-Sim uArch: core:  0, cta: 0 initialized @(1,8376)
GPGPU-Sim uArch: Shader 1 bind to kernel 2 '_Z7Kernel2PbS_S_S_i'
GPGPU-Sim uArch: core:  1, cta: 0 initialized @(1,8376)
GPGPU-Sim uArch: Shader 2 bind to kernel 2 '_Z7Kernel2PbS_S_S_i'
GPGPU-Sim uArch: core:  2, cta: 0 initialized @(1,8376)
GPGPU-Sim uArch: Shader 3 bind to kernel 2 '_Z7Kernel2PbS_S_S_i'
GPGPU-Sim uArch: core:  3, cta: 0 initialized @(1,8376)
GPGPU-Sim uArch: Shader 4 bind to kernel 2 '_Z7Kernel2PbS_S_S_i'
GPGPU-Sim uArch: core:  4, cta: 0 initialized @(1,8376)
GPGPU-Sim uArch: Shader 5 bind to kernel 2 '_Z7Kernel2PbS_S_S_i'
GPGPU-Sim uArch: core:  5, cta: 0 initialized @(1,8376)
GPGPU-Sim uArch: Shader 6 bind to kernel 2 '_Z7Kernel2PbS_S_S_i'
GPGPU-Sim uArch: core:  6, cta: 0 initialized @(1,8376)
GPGPU-Sim uArch: Shader 7 bind to kernel 2 '_Z7Kernel2PbS_S_S_i'
GPGPU-Sim uArch: core:  7, cta: 0 initialized @(1,8376)
GPGPU-Sim uArch: Shader 8 bind to kernel 2 '_Z7Kernel2PbS_S_S_i'
GPGPU-Sim uArch: core:  8, cta: 0 initialized @(1,8376)
GPGPU-Sim uArch: Shader 9 bind to kernel 2 '_Z7Kernel2PbS_S_S_i'
GPGPU-Sim uArch: core:  9, cta: 0 initialized @(1,8376)
GPGPU-Sim uArch: Shader 10 bind to kernel 2 '_Z7Kernel2PbS_S_S_i'
GPGPU-Sim uArch: core: 10, cta: 0 initialized @(1,8376)
GPGPU-Sim uArch: Shader 11 bind to kernel 2 '_Z7Kernel2PbS_S_S_i'
GPGPU-Sim uArch: core: 11, cta: 0 initialized @(1,8376)
GPGPU-Sim uArch: core: 12, cta: 1 initialized @(2,8376)
GPGPU-Sim uArch: core: 13, cta: 1 initialized @(2,8376)
GPGPU-Sim uArch: core: 14, cta: 1 initialized @(2,8376)
GPGPU-Sim uArch: core:  0, cta: 1 initialized @(2,8376)
GPGPU-Sim uArch: core:  1, cta: 1 initialized @(2,8376)
GPGPU-Sim uArch: core:  2, cta: 1 initialized @(2,8376)
GPGPU-Sim uArch: core:  3, cta: 1 initialized @(2,8376)
GPGPU-Sim uArch: core:  4, cta: 1 initialized @(2,8376)
GPGPU-Sim uArch: core:  5, cta: 1 initialized @(2,8376)
GPGPU-Sim uArch: core:  6, cta: 1 initialized @(2,8376)
GPGPU-Sim uArch: core:  7, cta: 1 initialized @(2,8376)
GPGPU-Sim uArch: core:  8, cta: 1 initialized @(2,8376)
GPGPU-Sim uArch: core:  9, cta: 1 initialized @(2,8376)
GPGPU-Sim uArch: core: 10, cta: 1 initialized @(2,8376)
GPGPU-Sim uArch: core: 11, cta: 1 initialized @(2,8376)
GPGPU-Sim uArch: core: 12, cta: 2 initialized @(3,8376)
GPGPU-Sim uArch: core: 13, cta: 2 initialized @(3,8376)
GPGPU-Sim uArch: core: 14, cta: 2 initialized @(3,8376)
GPGPU-Sim uArch: core:  0, cta: 2 initialized @(3,8376)
GPGPU-Sim uArch: core:  1, cta: 2 initialized @(3,8376)
GPGPU-Sim uArch: core:  2, cta: 2 initialized @(3,8376)
GPGPU-Sim uArch: core:  3, cta: 2 initialized @(3,8376)
GPGPU-Sim uArch: core:  4, cta: 2 initialized @(3,8376)
GPGPU-Sim uArch: core:  5, cta: 2 initialized @(3,8376)
GPGPU-Sim uArch: core:  6, cta: 2 initialized @(3,8376)
GPGPU-Sim uArch: core:  7, cta: 2 initialized @(3,8376)
GPGPU-Sim uArch: core:  8, cta: 2 initialized @(3,8376)
GPGPU-Sim uArch: core:  9, cta: 2 initialized @(3,8376)
GPGPU-Sim uArch: core: 10, cta: 2 initialized @(3,8376)
GPGPU-Sim uArch: core: 11, cta: 2 initialized @(3,8376)
GPGPU-Sim PTX: 500000 instructions simulated : ctaid=(22,0,0) tid=(9,0,0)
GPGPU-Sim PTX: 600000 instructions simulated : ctaid=(9,0,0) tid=(457,0,0)
GPGPU-Sim PTX: 700000 instructions simulated : ctaid=(4,0,0) tid=(457,0,0)
GPGPU-Sim uArch: cycles simulated: 8876  inst.: 638628 (ipc=376.4) sim_rate=127725 (inst/sec) elapsed = 0:0:00:05 / Tue Apr 16 16:48:51 2019
GPGPU-Sim PTX: 800000 instructions simulated : ctaid=(32,0,0) tid=(463,0,0)
GPGPU-Sim uArch: Shader 9 finished CTA #2 (954,8376), 2 CTAs running
GPGPU-Sim uArch: core:  9, cta: 2 initialized @(955,8376)
GPGPU-Sim uArch: Shader 5 finished CTA #2 (960,8376), 2 CTAs running
GPGPU-Sim uArch: core:  5, cta: 2 initialized @(961,8376)
GPGPU-Sim uArch: Shader 1 finished CTA #2 (967,8376), 2 CTAs running
GPGPU-Sim uArch: core:  1, cta: 2 initialized @(968,8376)
GPGPU-Sim uArch: Shader 9 finished CTA #1 (972,8376), 2 CTAs running
GPGPU-Sim uArch: core:  9, cta: 1 initialized @(973,8376)
GPGPU-Sim uArch: Shader 8 finished CTA #1 (976,8376), 2 CTAs running
GPGPU-Sim uArch: core:  8, cta: 1 initialized @(977,8376)
GPGPU-Sim uArch: Shader 5 finished CTA #1 (977,8376), 2 CTAs running
GPGPU-Sim uArch: core:  5, cta: 1 initialized @(978,8376)
GPGPU-Sim uArch: Shader 7 finished CTA #2 (979,8376), 2 CTAs running
GPGPU-Sim uArch: core:  7, cta: 2 initialized @(980,8376)
GPGPU-Sim uArch: Shader 1 finished CTA #1 (984,8376), 2 CTAs running
GPGPU-Sim uArch: core:  1, cta: 1 initialized @(985,8376)
GPGPU-Sim uArch: Shader 13 finished CTA #1 (985,8376), 2 CTAs running
GPGPU-Sim uArch: core: 13, cta: 1 initialized @(986,8376)
GPGPU-Sim uArch: Shader 11 finished CTA #0 (991,8376), 2 CTAs running
GPGPU-Sim uArch: core: 11, cta: 0 initialized @(992,8376)
GPGPU-Sim uArch: Shader 8 finished CTA #2 (993,8376), 2 CTAs running
GPGPU-Sim uArch: core:  8, cta: 2 initialized @(994,8376)
GPGPU-Sim uArch: Shader 7 finished CTA #0 (996,8376), 2 CTAs running
GPGPU-Sim uArch: core:  7, cta: 0 initialized @(997,8376)
GPGPU-Sim uArch: Shader 0 finished CTA #2 (997,8376), 2 CTAs running
GPGPU-Sim uArch: core:  0, cta: 2 initialized @(998,8376)
GPGPU-Sim uArch: cycles simulated: 9376  inst.: 771727 (ipc=321.3) sim_rate=128621 (inst/sec) elapsed = 0:0:00:06 / Tue Apr 16 16:48:52 2019
GPGPU-Sim uArch: Shader 2 finished CTA #0 (1002,8376), 2 CTAs running
GPGPU-Sim uArch: Shader 2 finished CTA #1 (1002,8376), 1 CTAs running
GPGPU-Sim uArch: Shader 13 finished CTA #2 (1002,8376), 2 CTAs running
GPGPU-Sim uArch: core:  2, cta: 0 initialized @(1003,8376)
GPGPU-Sim uArch: core: 13, cta: 2 initialized @(1003,8376)
GPGPU-Sim uArch: core:  2, cta: 1 initialized @(1004,8376)
GPGPU-Sim uArch: Shader 3 finished CTA #0 (1008,8376), 2 CTAs running
GPGPU-Sim uArch: Shader 11 finished CTA #1 (1008,8376), 2 CTAs running
GPGPU-Sim uArch: core:  3, cta: 0 initialized @(1009,8376)
GPGPU-Sim uArch: core: 11, cta: 1 initialized @(1009,8376)
GPGPU-Sim uArch: Shader 0 finished CTA #0 (1014,8376), 2 CTAs running
GPGPU-Sim uArch: Shader 4 finished CTA #0 (1014,8376), 2 CTAs running
GPGPU-Sim uArch: Shader 4 finished CTA #1 (1017,8376), 1 CTAs running
GPGPU-Sim uArch: Shader 6 finished CTA #2 (1020,8376), 2 CTAs running
GPGPU-Sim uArch: Shader 6 finished CTA #0 (1020,8376), 1 CTAs running
GPGPU-Sim uArch: Shader 4 finished CTA #2 (1021,8376), 0 CTAs running
GPGPU-Sim uArch: Shader 4 empty (release kernel 2 '_Z7Kernel2PbS_S_S_i').
GPGPU-Sim uArch: Shader 3 finished CTA #1 (1025,8376), 2 CTAs running
GPGPU-Sim uArch: Shader 3 finished CTA #2 (1025,8376), 1 CTAs running
GPGPU-Sim uArch: Shader 10 finished CTA #0 (1026,8376), 2 CTAs running
GPGPU-Sim uArch: Shader 10 finished CTA #1 (1026,8376), 1 CTAs running
GPGPU-Sim uArch: Shader 6 finished CTA #1 (1027,8376), 0 CTAs running
GPGPU-Sim uArch: Shader 6 empty (release kernel 2 '_Z7Kernel2PbS_S_S_i').
GPGPU-Sim uArch: Shader 12 finished CTA #1 (1028,8376), 2 CTAs running
GPGPU-Sim uArch: Shader 10 finished CTA #2 (1033,8376), 0 CTAs running
GPGPU-Sim uArch: Shader 10 empty (release kernel 2 '_Z7Kernel2PbS_S_S_i').
GPGPU-Sim uArch: Shader 2 finished CTA #2 (1035,8376), 2 CTAs running
GPGPU-Sim uArch: Shader 12 finished CTA #0 (1035,8376), 1 CTAs running
GPGPU-Sim uArch: Shader 12 finished CTA #2 (1039,8376), 0 CTAs running
GPGPU-Sim uArch: Shader 12 empty (release kernel 2 '_Z7Kernel2PbS_S_S_i').
GPGPU-Sim uArch: Shader 14 finished CTA #0 (1045,8376), 2 CTAs running
GPGPU-Sim uArch: Shader 14 finished CTA #1 (1048,8376), 1 CTAs running
GPGPU-Sim uArch: Shader 14 finished CTA #2 (1052,8376), 0 CTAs running
GPGPU-Sim uArch: Shader 14 empty (release kernel 2 '_Z7Kernel2PbS_S_S_i').
GPGPU-Sim PTX: 900000 instructions simulated : ctaid=(50,0,0) tid=(180,0,0)
GPGPU-Sim uArch: Shader 1 finished CTA #0 (1183,8376), 2 CTAs running
GPGPU-Sim uArch: Shader 5 finished CTA #0 (1199,8376), 2 CTAs running
GPGPU-Sim uArch: Shader 7 finished CTA #1 (1201,8376), 2 CTAs running
GPGPU-Sim uArch: Shader 11 finished CTA #2 (1203,8376), 2 CTAs running
GPGPU-Sim uArch: Shader 8 finished CTA #0 (1204,8376), 2 CTAs running
GPGPU-Sim uArch: Shader 13 finished CTA #0 (1207,8376), 2 CTAs running
GPGPU-Sim uArch: Shader 0 finished CTA #1 (1208,8376), 1 CTAs running
GPGPU-Sim uArch: Shader 9 finished CTA #0 (1212,8376), 2 CTAs running
GPGPU-Sim uArch: Shader 1 finished CTA #2 (1404,8376), 1 CTAs running
GPGPU-Sim uArch: Shader 5 finished CTA #2 (1406,8376), 1 CTAs running
GPGPU-Sim uArch: Shader 0 finished CTA #2 (1408,8376), 0 CTAs running
GPGPU-Sim uArch: Shader 0 empty (release kernel 2 '_Z7Kernel2PbS_S_S_i').
GPGPU-Sim uArch: Shader 3 finished CTA #0 (1413,8376), 0 CTAs running
GPGPU-Sim uArch: Shader 3 empty (release kernel 2 '_Z7Kernel2PbS_S_S_i').
GPGPU-Sim uArch: Shader 8 finished CTA #1 (1416,8376), 1 CTAs running
GPGPU-Sim uArch: Shader 13 finished CTA #1 (1422,8376), 1 CTAs running
GPGPU-Sim uArch: Shader 11 finished CTA #0 (1429,8376), 1 CTAs running
GPGPU-Sim uArch: Shader 9 finished CTA #2 (1433,8376), 1 CTAs running
GPGPU-Sim uArch: Shader 2 finished CTA #0 (1453,8376), 1 CTAs running
GPGPU-Sim uArch: Shader 7 finished CTA #2 (1456,8376), 1 CTAs running
GPGPU-Sim uArch: Shader 11 finished CTA #1 (1460,8376), 0 CTAs running
GPGPU-Sim uArch: Shader 11 empty (release kernel 2 '_Z7Kernel2PbS_S_S_i').
GPGPU-Sim uArch: Shader 9 finished CTA #1 (1467,8376), 0 CTAs running
GPGPU-Sim uArch: Shader 9 empty (release kernel 2 '_Z7Kernel2PbS_S_S_i').
GPGPU-Sim uArch: Shader 1 finished CTA #1 (1483,8376), 0 CTAs running
GPGPU-Sim uArch: Shader 1 empty (release kernel 2 '_Z7Kernel2PbS_S_S_i').
GPGPU-Sim uArch: Shader 7 finished CTA #0 (1495,8376), 0 CTAs running
GPGPU-Sim uArch: Shader 7 empty (release kernel 2 '_Z7Kernel2PbS_S_S_i').
GPGPU-Sim uArch: Shader 13 finished CTA #2 (1501,8376), 0 CTAs running
GPGPU-Sim uArch: Shader 13 empty (release kernel 2 '_Z7Kernel2PbS_S_S_i').
GPGPU-Sim uArch: Shader 2 finished CTA #1 (1511,8376), 0 CTAs running
GPGPU-Sim uArch: Shader 2 empty (release kernel 2 '_Z7Kernel2PbS_S_S_i').
GPGPU-Sim uArch: Shader 5 finished CTA #1 (1537,8376), 0 CTAs running
GPGPU-Sim uArch: Shader 5 empty (release kernel 2 '_Z7Kernel2PbS_S_S_i').
GPGPU-Sim uArch: Shader 8 finished CTA #2 (1549,8376), 0 CTAs running
GPGPU-Sim uArch: Shader 8 empty (release kernel 2 '_Z7Kernel2PbS_S_S_i').
GPGPU-Sim uArch: GPU detected kernel '_Z7Kernel2PbS_S_S_i' finished on shader 8.
kernel_name = _Z7Kernel2PbS_S_S_i 
kernel_launch_uid = 2 
gpu_sim_cycle = 1550
gpu_sim_insn = 450228
gpu_ipc =     290.4697
gpu_tot_sim_cycle = 9926
gpu_tot_sim_insn = 900664
gpu_tot_ipc =      90.7379
gpu_tot_issued_cta = 0
gpu_stall_dramfull = 412
gpu_stall_icnt2sh    = 621
gpu_total_sim_rate=150110

========= Core cache stats =========
L1I_cache:
	L1I_total_cache_accesses = 20293
	L1I_total_cache_misses = 1922
	L1I_total_cache_miss_rate = 0.0947
	L1I_total_cache_pending_hits = 0
	L1I_total_cache_reservation_fails = 11368
L1D_cache:
	L1D_cache_core[0]: Access = 164, Miss = 43, Miss_rate = 0.262, Pending_hits = 120, Reservation_fails = 0
	L1D_cache_core[1]: Access = 256, Miss = 85, Miss_rate = 0.332, Pending_hits = 108, Reservation_fails = 0
	L1D_cache_core[2]: Access = 160, Miss = 40, Miss_rate = 0.250, Pending_hits = 120, Reservation_fails = 0
	L1D_cache_core[3]: Access = 160, Miss = 40, Miss_rate = 0.250, Pending_hits = 120, Reservation_fails = 0
	L1D_cache_core[4]: Access = 144, Miss = 36, Miss_rate = 0.250, Pending_hits = 108, Reservation_fails = 0
	L1D_cache_core[5]: Access = 184, Miss = 50, Miss_rate = 0.272, Pending_hits = 132, Reservation_fails = 0
	L1D_cache_core[6]: Access = 112, Miss = 28, Miss_rate = 0.250, Pending_hits = 84, Reservation_fails = 0
	L1D_cache_core[7]: Access = 136, Miss = 38, Miss_rate = 0.279, Pending_hits = 96, Reservation_fails = 0
	L1D_cache_core[8]: Access = 144, Miss = 45, Miss_rate = 0.312, Pending_hits = 96, Reservation_fails = 0
	L1D_cache_core[9]: Access = 140, Miss = 41, Miss_rate = 0.293, Pending_hits = 96, Reservation_fails = 0
	L1D_cache_core[10]: Access = 96, Miss = 24, Miss_rate = 0.250, Pending_hits = 72, Reservation_fails = 0
	L1D_cache_core[11]: Access = 148, Miss = 39, Miss_rate = 0.264, Pending_hits = 108, Reservation_fails = 0
	L1D_cache_core[12]: Access = 96, Miss = 24, Miss_rate = 0.250, Pending_hits = 72, Reservation_fails = 0
	L1D_cache_core[13]: Access = 132, Miss = 35, Miss_rate = 0.265, Pending_hits = 96, Reservation_fails = 0
	L1D_cache_core[14]: Access = 96, Miss = 24, Miss_rate = 0.250, Pending_hits = 72, Reservation_fails = 0
	L1D_total_cache_accesses = 2168
	L1D_total_cache_misses = 592
	L1D_total_cache_miss_rate = 0.2731
	L1D_total_cache_pending_hits = 1500
	L1D_total_cache_reservation_fails = 0
	L1D_cache_data_port_util = 0.001
	L1D_cache_fill_port_util = 0.010
L1C_cache:
	L1C_total_cache_accesses = 4094
	L1C_total_cache_misses = 480
	L1C_total_cache_miss_rate = 0.1172
	L1C_total_cache_pending_hits = 0
	L1C_total_cache_reservation_fails = 3411
L1T_cache:
	L1T_total_cache_accesses = 0
	L1T_total_cache_misses = 0
	L1T_total_cache_pending_hits = 0
	L1T_total_cache_reservation_fails = 0

Total_core_cache_stats:
	Total_core_cache_stats_breakdown[GLOBAL_ACC_R][HIT] = 60
	Total_core_cache_stats_breakdown[GLOBAL_ACC_R][HIT_RESERVED] = 1500
	Total_core_cache_stats_breakdown[GLOBAL_ACC_R][MISS] = 517
	Total_core_cache_stats_breakdown[CONST_ACC_R][HIT] = 3614
	Total_core_cache_stats_breakdown[CONST_ACC_R][MISS] = 480
	Total_core_cache_stats_breakdown[CONST_ACC_R][RESERVATION_FAIL] = 3411
	Total_core_cache_stats_breakdown[GLOBAL_ACC_W][HIT] = 16
	Total_core_cache_stats_breakdown[GLOBAL_ACC_W][MISS] = 75
	Total_core_cache_stats_breakdown[INST_ACC_R][HIT] = 18371
	Total_core_cache_stats_breakdown[INST_ACC_R][MISS] = 1922
	Total_core_cache_stats_breakdown[INST_ACC_R][RESERVATION_FAIL] = 11368
Shader 0 warp_id issue ditsribution:
warp_id:
0, 1, 2, 3, 4, 5, 6, 7, 8, 9, 10, 11, 12, 13, 14, 15, 16, 17, 18, 19, 20, 21, 22, 23, 24, 25, 26, 27, 28, 29, 30, 31, 32, 33, 34, 35, 36, 37, 38, 39, 40, 41, 42, 43, 44, 45, 46, 47, 
distro:
45, 45, 45, 45, 45, 45, 45, 45, 45, 45, 45, 45, 45, 45, 45, 45, 45, 45, 45, 45, 45, 45, 45, 45, 45, 58, 45, 45, 45, 45, 45, 45, 60, 60, 60, 60, 60, 60, 60, 60, 60, 60, 60, 60, 60, 60, 60, 60, 
gpgpu_n_tot_thrd_icount = 983328
gpgpu_n_tot_w_icount = 30729
gpgpu_n_stall_shd_mem = 3411
gpgpu_n_mem_read_local = 0
gpgpu_n_mem_write_local = 0
gpgpu_n_mem_read_global = 517
gpgpu_n_mem_write_global = 91
gpgpu_n_mem_texture = 0
gpgpu_n_mem_const = 15
gpgpu_n_load_insn  = 64077
gpgpu_n_store_insn = 91
gpgpu_n_shmem_insn = 0
gpgpu_n_tex_insn = 0
gpgpu_n_const_mem_insn = 0
gpgpu_n_param_mem_insn = 128590
gpgpu_n_shmem_bkconflict = 0
gpgpu_n_cache_bkconflict = 0
gpgpu_n_intrawarp_mshr_merge = 0
gpgpu_n_cmem_portconflict = 3411
gpgpu_stall_shd_mem[c_mem][bk_conf] = 3411
gpgpu_stall_shd_mem[c_mem][mshr_rc] = 0
gpgpu_stall_shd_mem[c_mem][icnt_rc] = 0
gpgpu_stall_shd_mem[c_mem][data_port_stall] = 0
gpgpu_stall_shd_mem[t_mem][mshr_rc] = 0
gpgpu_stall_shd_mem[t_mem][icnt_rc] = 0
gpgpu_stall_shd_mem[t_mem][data_port_stall] = 0
gpgpu_stall_shd_mem[s_mem][bk_conf] = 0
gpgpu_stall_shd_mem[gl_mem][bk_conf] = 0
gpgpu_stall_shd_mem[gl_mem][coal_stall] = 0
gpgpu_stall_shd_mem[gl_mem][data_port_stall] = 0
gpgpu_stall_shd_mem[g_mem_ld][mshr_rc] = 0
gpgpu_stall_shd_mem[g_mem_ld][icnt_rc] = 0
gpgpu_stall_shd_mem[g_mem_ld][wb_icnt_rc] = 0
gpgpu_stall_shd_mem[g_mem_ld][wb_rsrv_fail] = 0
gpgpu_stall_shd_mem[g_mem_st][mshr_rc] = 0
gpgpu_stall_shd_mem[g_mem_st][icnt_rc] = 0
gpgpu_stall_shd_mem[g_mem_st][wb_icnt_rc] = 0
gpgpu_stall_shd_mem[g_mem_st][wb_rsrv_fail] = 0
gpgpu_stall_shd_mem[l_mem_ld][mshr_rc] = 0
gpgpu_stall_shd_mem[l_mem_ld][icnt_rc] = 0
gpgpu_stall_shd_mem[l_mem_ld][wb_icnt_rc] = 0
gpgpu_stall_shd_mem[l_mem_ld][wb_rsrv_fail] = 0
gpgpu_stall_shd_mem[l_mem_st][mshr_rc] = 0
gpgpu_stall_shd_mem[l_mem_st][icnt_rc] = 0
gpgpu_stall_shd_mem[l_mem_ld][wb_icnt_rc] = 0
gpgpu_stall_shd_mem[l_mem_ld][wb_rsrv_fail] = 0
gpu_reg_bank_conflict_stalls = 0
Warp Occupancy Distribution:
Stall:7383	W0_Idle:32712	W0_Scoreboard:30836	W1:601	W2:0	W3:0	W4:0	W5:0	W6:0	W7:0	W8:0	W9:0	W10:0	W11:0	W12:0	W13:0	W14:0	W15:0	W16:0	W17:0	W18:0	W19:0	W20:0	W21:0	W22:0	W23:0	W24:0	W25:0	W26:0	W27:0	W28:0	W29:0	W30:0	W31:0	W32:30128
traffic_breakdown_coretomem[CONST_ACC_R] = 120 {8:15,}
traffic_breakdown_coretomem[GLOBAL_ACC_R] = 4136 {8:517,}
traffic_breakdown_coretomem[GLOBAL_ACC_W] = 3640 {40:91,}
traffic_breakdown_coretomem[INST_ACC_R] = 496 {8:62,}
traffic_breakdown_memtocore[CONST_ACC_R] = 1080 {72:15,}
traffic_breakdown_memtocore[GLOBAL_ACC_R] = 70312 {136:517,}
traffic_breakdown_memtocore[GLOBAL_ACC_W] = 728 {8:91,}
traffic_breakdown_memtocore[INST_ACC_R] = 8432 {136:62,}
maxmrqlatency = 64 
maxdqlatency = 0 
maxmflatency = 344 
averagemflatency = 259 
max_icnt2mem_latency = 36 
max_icnt2sh_latency = 9925 
mrq_lat_table:356 	33 	81 	50 	24 	28 	1 	0 	0 	0 	0 	0 	0 	0 	0 	0 	0 	0 	0 	0 	0 	0 	0 	0 	0 	0 	0 	0 	0 	0 	0 	0 	
dq_lat_table:0 	0 	0 	0 	0 	0 	0 	0 	0 	0 	0 	0 	0 	0 	0 	0 	0 	0 	0 	0 	0 	0 	0 	0 	0 	0 	0 	0 	0 	0 	0 	0 	
mf_lat_table:0 	0 	0 	0 	0 	0 	0 	107 	516 	0 	0 	0 	0 	0 	0 	0 	0 	0 	0 	0 	0 	0 	0 	0 	0 	0 	0 	0 	0 	0 	0 	0 	
icnt2mem_lat_table:0 	0 	0 	661 	19 	5 	0 	0 	0 	0 	0 	0 	0 	0 	0 	0 	0 	0 	0 	0 	0 	0 	0 	0 	
icnt2sh_lat_table:0 	0 	0 	315 	192 	25 	0 	0 	0 	0 	1 	6 	22 	62 	0 	0 	0 	0 	0 	0 	0 	0 	0 	0 	
mf_lat_pw_table:0 	0 	0 	0 	0 	0 	0 	11 	7 	0 	0 	0 	0 	0 	0 	0 	0 	0 	0 	0 	0 	0 	0 	0 	0 	0 	0 	0 	0 	0 	0 	0 	
maximum concurrent accesses to same row:
dram[0]:         1         0         0         0         0         0         0         0         0         0         0         0         0         0         0         0 
dram[1]:         0         0         0         0         0         0         0         0         0         0         0         0         0         0         0         0 
dram[2]:         0         0         0         0         0         1         0         0         0         0         0         0         0         0         0         0 
dram[3]:         0         0         0         0         0         0         0         0         0         0         0         0         0         0         0         0 
dram[4]:         0         0         0         0         0         0         0         0         0         0         0         0         0         0         0         0 
dram[5]:         0         0         0         0         0         0         0         0         0         0         0         0         0         0         0         0 
maximum service time to same row:
dram[0]:       621         0       949       951      1119      1637      2751      5441         0      7547      8344         0         0         0      1899         0 
dram[1]:      1197         0       915       938      1029      1747      3924         0         0         0      3050         0         0         0         0         0 
dram[2]:       385         0       938       954      1066      1576         0      3521      7154         0         0         0         0      1163         0         0 
dram[3]:         0         0       916       935      1668      1691         0      3118         0      6622         0      5835         0         0         0         0 
dram[4]:         0         0       943       963      1678      1701         0      2444      3856         0         0         0         0         0         0         0 
dram[5]:         0         0       925       919      1624      1750         0      7616         0         0      7950      3453         0         0         0         0 
average row accesses per activate:
dram[0]:  1.000000      -nan 14.000000 14.000000 28.000000 31.000000  4.000000  2.000000      -nan  2.000000  2.000000      -nan      -nan      -nan  1.000000      -nan 
dram[1]:  2.000000      -nan 14.000000 14.000000 29.000000 28.000000  4.000000      -nan      -nan      -nan  4.000000      -nan      -nan      -nan      -nan      -nan 
dram[2]:  2.000000      -nan 14.000000 14.000000 29.000000 15.000000      -nan  3.000000  2.000000      -nan      -nan      -nan      -nan  5.000000      -nan      -nan 
dram[3]:      -nan      -nan 14.000000 16.000000 30.000000 26.000000      -nan  2.000000      -nan  2.000000      -nan  2.000000      -nan      -nan      -nan      -nan 
dram[4]:      -nan      -nan 14.000000 16.000000 31.000000 27.000000      -nan  1.000000  2.000000      -nan      -nan      -nan      -nan      -nan      -nan      -nan 
dram[5]:      -nan      -nan 14.000000 16.000000 30.000000 28.000000      -nan  1.000000      -nan      -nan  2.000000  4.000000      -nan      -nan      -nan      -nan 
average row locality = 573/48 = 11.937500
number of total memory accesses made:
dram[0]:         0         0         0         0         0         0         0         0         0         0         0         0         0         0         0         0 
dram[1]:         0         0         0         0         0         0         0         0         0         0         0         0         0         0         0         0 
dram[2]:         0         0         0         0         0         0         0         0         0         0         0         0         0         0         0         0 
dram[3]:         0         0         0         0         0         0         0         0         0         0         0         0         0         0         0         0 
dram[4]:         0         0         0         0         0         0         0         0         0         0         0         0         0         0         0         0 
dram[5]:         0         0         0         0         0         0         0         0         0         0         0         0         0         0         0         0 
total accesses: 0
min_bank_accesses = 0!
min_chip_accesses = 0!
number of total read accesses:
dram[0]:         3         0        14        14        28        29         3         1         0         1         1         0         0         0         1         0 
[...]
traffic_breakdown_coretomem[GLOBAL_ACC_W] = 9426304 {40:235338,72:34,136:76,}
traffic_breakdown_coretomem[INST_ACC_R] = 720 {8:90,}
traffic_breakdown_memtocore[CONST_ACC_R] = 1080 {72:15,}
traffic_breakdown_memtocore[GLOBAL_ACC_R] = 121750600 {136:895225,}
traffic_breakdown_memtocore[GLOBAL_ACC_W] = 1883584 {8:235448,}
traffic_breakdown_memtocore[INST_ACC_R] = 12240 {136:90,}
maxmrqlatency = 362 
maxdqlatency = 0 
maxmflatency = 788 
averagemflatency = 257 
max_icnt2mem_latency = 566 
max_icnt2sh_latency = 984082 
mrq_lat_table:63918 	3481 	1330 	4990 	15001 	1484 	318 	163 	1 	0 	0 	0 	0 	0 	0 	0 	0 	0 	0 	0 	0 	0 	0 	0 	0 	0 	0 	0 	0 	0 	0 	0 	
dq_lat_table:0 	0 	0 	0 	0 	0 	0 	0 	0 	0 	0 	0 	0 	0 	0 	0 	0 	0 	0 	0 	0 	0 	0 	0 	0 	0 	0 	0 	0 	0 	0 	0 	
mf_lat_table:0 	0 	0 	0 	0 	0 	0 	611802 	512084 	6802 	0 	0 	0 	0 	0 	0 	0 	0 	0 	0 	0 	0 	0 	0 	0 	0 	0 	0 	0 	0 	0 	0 	
icnt2mem_lat_table:0 	0 	0 	435778 	367870 	185966 	84156 	52105 	4891 	12 	0 	0 	0 	0 	0 	0 	0 	0 	0 	0 	0 	0 	0 	0 	
icnt2sh_lat_table:0 	0 	0 	56715 	436894 	370420 	30947 	264 	0 	0 	1 	6 	22 	458 	7930 	16693 	41307 	58565 	52691 	57775 	0 	0 	0 	0 	
mf_lat_pw_table:0 	0 	0 	0 	0 	0 	0 	940 	1054 	0 	0 	0 	0 	0 	0 	0 	0 	0 	0 	0 	0 	0 	0 	0 	0 	0 	0 	0 	0 	0 	0 	0 	
maximum concurrent accesses to same row:
dram[0]:        12        16        47        36        32        32        28        31        47        25        24        39        17        16        20        20 
dram[1]:        15        16        55        50        31        31        30        32        47        34        36        29        15        25        16        18 
dram[2]:        16        14        49        39        31        29        33        26        40        56        51        33        15        12        18        18 
dram[3]:        16        16        52        59        34        29        26        24        45        52        52        44        16        17        16        15 
dram[4]:        17        16        45        45        33        28        29        29        44        55        52        49        13        16        20        16 
dram[5]:        16        15        52        63        33        28        30        30        44        38        41        40        14        16        15        18 
maximum service time to same row:
dram[0]:     49153     42842     28129     52647     40641     27291     28203     93590     11107     17291     46547     30844     23373     19448     28721     34125 
dram[1]:     43134     34875     43884     17037     28375     25985     26781     19681     28287     22085     14762     18219     20422     31202     91109     37065 
dram[2]:     58631     42772     24552     41806     25759     21782     25158     15646     34279     24933     22966     18860     35653     31741     28378     24984 
dram[3]:     29678     31985     25564     62725     21008     19086     37181     19786     19028     18303     32353     53365     37643     40332     41099     53375 
dram[4]:     32299     45323     35284     32153     23559     15173     19316     27451     29750     27693     16632     34481     38328     28518     30828     27457 
dram[5]:     38640     43394     42922     41794     19482     22337     47143     28806     17053     19406     23456     19414     30221     31145     42872     50667 
average row accesses per activate:
dram[0]:  2.177143  2.132530  2.216710  2.242331  2.187747  2.025696  2.120654  2.121650  2.256822  2.066971  2.151424  2.159575  2.213296  2.259939  2.414384  2.247273 
dram[1]:  2.105919  2.369863  2.353933  2.173653  2.246445  2.089330  2.158763  2.073123  2.179661  2.139216  2.132219  2.085271  2.141141  2.222591  2.273927  2.194175 
dram[2]:  1.967164  2.339744  2.201072  2.153846  2.170960  2.081023  2.133758  2.067669  2.154639  2.230769  2.210702  2.239682  2.095808  2.216718  2.340425  2.300676 
dram[3]:  2.373444  2.325879  2.209375  2.453454  2.040512  2.145786  2.048980  2.197778  2.083062  2.132492  2.022388  2.197472  2.124629  2.247706  2.116279  2.404255 
dram[4]:  2.166205  2.213592  2.164103  2.280000  2.041096  2.143193  2.152047  2.157143  2.160550  2.118421  2.173709  2.315966  2.176781  2.131833  2.480969  2.464029 
dram[5]:  2.264615  2.088652  2.243243  2.283077  2.162338  2.137529  2.181818  2.051440  2.264943  2.020124  2.109489  2.176471  2.150997  2.283154  2.281554  2.358156 
average row locality = 90686/41666 = 2.176499
number of total memory accesses made:
dram[0]:         0         0         0         0         0         0         0         0         0         0         0         0         0         0         0         0 
dram[1]:         0         0         0         0         0         0         0         0         0         0         0         0         0         0         0         0 
dram[2]:         0         0         0         0         0         0         0         0         0         0         0         0         0         0         0         0 
dram[3]:         0         0         0         0         0         0         0         0         0         0         0         0         0         0         0         0 
dram[4]:         0         0         0         0         0         0         0         0         0         0         0         0         0         0         0         0 
dram[5]:         0         0         0         0         0         0         0         0         0         0         0         0         0         0         0         0 
total accesses: 0
min_bank_accesses = 0!
min_chip_accesses = 0!
number of total read accesses:
dram[0]:       762       708       739       642       891       774       874       845      1063       994      1056       884       740       691       705       618 
dram[1]:       676       519       722       625       760       694       878       880       973       828      1050       999       666       626       689       678 
dram[2]:       659       730       728       729       739       813       844       934       928      1053       982      1038       644       686       660       681 
dram[3]:       572       728       604       680       771       801       862       836       945      1027      1008      1017       673       711       637       678 
dram[4]:       782       684       744       684       842       763       935       879      1066       961      1040       993       760       640       717       685 
dram[5]:       736       589       716       612       810       767       875       850      1041       964      1092       983       707       616       705       665 
total reads: 76550
bank skew: 1092/519 = 2.10
chip skew: 13175/12263 = 1.07
number of total write accesses:
dram[0]:         0         0       110        89       216       172       163       184       343       364       379       334        59        48         0         0 
dram[1]:         0         0       116       101       188       148       169       169       313       263       353       346        47        43         0         0 
dram[2]:         0         0        93        83       188       163       161       166       326       339       340       373        56        30         0         0 
dram[3]:         0         0       103       137       186       141       142       153       334       325       347       374        43        24         0         0 
dram[4]:         0         0       100       114       201       150       169       178       347       327       349       385        65        23         0         0 
dram[5]:         0         0       114       130       189       150       181       147       361       341       353       349        48        21         0         0 
total reads: 14136
min_bank_accesses = 0!
chip skew: 2461/2256 = 1.09
average mf latency per bank:
dram[0]:       1418      1611      1400      1590      4647      5560      8144      8424      1749      1717      1608      1930      1694      1868      1684      1905
dram[1]:       1620      2276      1309      1685      5156      7304      8057      8719      1783      2196      1634      1819      1849      2056      1620      1867
dram[2]:       1686      1610      1425      1538      5614      6405      8551      8403      1922      1825      1731      1709      1855      3415      1753      1856
dram[3]:       1839      1660      1623      1510      5366      6557      8515      9294      1838      1864      1768      1776      1857      1890      1828      1782
dram[4]:       1485      1720      1439      1499      5094      6956      7810      8814      1734      1970      1688      1800      1669      1982      1654      1830
dram[5]:       1528      2005      1381      1674      5267      6784      8168      9074      1693      1934      1695      1861      1795      2076      1661      1808
maximum mf latency per bank:
dram[0]:        688       713       633       625       647       641       788       728       666       694       729       690       713       673       657       723
dram[1]:        589       626       744       720       661       672       649       689       592       700       621       776       623       648       647       730
dram[2]:        620       757       680       660       661       661       677       745       667       711       678       722       668       705       662       688
dram[3]:        595       684       660       669       613       684       615       647       609       696       668       667       601       658       591       646
dram[4]:        653       655       723       699       630       623       648       730       666       641       612       682       622       646       604       656
dram[5]:        675       618       627       621       660       646       637       641       609       664       690       632       630       695       631       603

Number of Memory Banks Accessed per Memory Operation per Warp (from 0):
0	0	0	0	0	0	0	0	0	0	0	0	0	0	0	0	0	0	0	0	0	0	0	0	0	0	0	0	0	0	0	0	0	0	0	0	0	0	0	0	0	0	0	0	0	0	0	0	0	0	0	0	0	0	0	0	0	0	0	0	0	0	0	0	0	0	0	0	0	0	0	0	0	0	0	0	0	0	0	0	0	0	0	0	0	0	0	0	0	0	0	0	0	0	0	0	
Average # of Memory Banks Accessed per Memory Operation per Warp=-nan

position of mrq chosen
0	0	0	0	0	0	0	0	0	0	0	0	0	0	0	0	

average position of mrq chosen = -nan
Memory Partition 0: 
Cache L2_bank_000:
MSHR contents

Cache L2_bank_001:
MSHR contents

In Dram Latency Queue (total = 0): 
DRAM[0]: 16 bks, busW=4 BL=8 CL=12, tRRD=2 tCCD=6, tRCD=12 tRAS=28 tRP=12 tRC=40
n_cmd=1314252 n_nop=1270542 n_act=7104 n_pre=7088 n_req=15447 n_rd=25972 n_write=3546 bw_util=0.04492
n_activity=318727 dram_eff=0.1852
bk0: 1524a 1301606i bk1: 1416a 1302539i bk2: 1478a 1299970i bk3: 1284a 1301974i bk4: 1782a 1294966i bk5: 1548a 1296715i bk6: 1748a 1294721i bk7: 1690a 1294913i bk8: 2126a 1288836i bk9: 1988a 1288070i bk10: 2112a 1286025i bk11: 1768a 1290118i bk12: 1480a 1299237i bk13: 1382a 1301120i bk14: 1410a 1302849i bk15: 1236a 1303973i 
dram_util_bins: 0 0 0 0 0 0 0 0 0 0
dram_eff_bins: 0 0 0 0 0 0 0 0 0 0
mrqq: max=16 avg=0.0875068
Memory Partition 1: 
Cache L2_bank_002:
MSHR contents

Cache L2_bank_003:
MSHR contents

In Dram Latency Queue (total = 0): 
DRAM[1]: 16 bks, busW=4 BL=8 CL=12, tRRD=2 tCCD=6, tRCD=12 tRAS=28 tRP=12 tRC=40
n_cmd=1314252 n_nop=1273106 n_act=6695 n_pre=6679 n_req=14519 n_rd=24526 n_write=3246 bw_util=0.04226
n_activity=304432 dram_eff=0.1825
bk0: 1352a 1302673i bk1: 1038a 1306302i bk2: 1444a 1300749i bk3: 1250a 1302018i bk4: 1520a 1298016i bk5: 1388a 1299201i bk6: 1756a 1295910i bk7: 1760a 1294698i bk8: 1946a 1290982i bk9: 1656a 1293800i bk10: 2100a 1287746i bk11: 1998a 1287740i bk12: 1332a 1300494i bk13: 1252a 1302103i bk14: 1378a 1302647i bk15: 1356a 1302811i 
dram_util_bins: 0 0 0 0 0 0 0 0 0 0
dram_eff_bins: 0 0 0 0 0 0 0 0 0 0
mrqq: max=16 avg=0.0771077
Memory Partition 2: 
Cache L2_bank_004:
MSHR contents

Cache L2_bank_005:
MSHR contents

In Dram Latency Queue (total = 0): 
DRAM[2]: 16 bks, busW=4 BL=8 CL=12, tRRD=2 tCCD=6, tRCD=12 tRAS=28 tRP=12 tRC=40
n_cmd=1314252 n_nop=1271293 n_act=6965 n_pre=6949 n_req=15166 n_rd=25696 n_write=3349 bw_util=0.0442
n_activity=313678 dram_eff=0.1852
bk0: 1318a 1302456i bk1: 1460a 1302774i bk2: 1456a 1300598i bk3: 1458a 1300181i bk4: 1478a 1297920i bk5: 1626a 1296643i bk6: 1688a 1295730i bk7: 1868a 1292918i bk8: 1856a 1291168i bk9: 2106a 1288506i bk10: 1964a 1288901i bk11: 2076a 1287141i bk12: 1288a 1300553i bk13: 1372a 1301285i bk14: 1320a 1303326i bk15: 1362a 1303018i 
dram_util_bins: 0 0 0 0 0 0 0 0 0 0
dram_eff_bins: 0 0 0 0 0 0 0 0 0 0
mrqq: max=16 avg=0.0858321
Memory Partition 3: 
Cache L2_bank_006:
MSHR contents

Cache L2_bank_007:
MSHR contents

In Dram Latency Queue (total = 0): 
DRAM[3]: 16 bks, busW=4 BL=8 CL=12, tRRD=2 tCCD=6, tRCD=12 tRAS=28 tRP=12 tRC=40
n_cmd=1314252 n_nop=1272108 n_act=6853 n_pre=6837 n_req=14859 n_rd=25100 n_write=3354 bw_util=0.0433
n_activity=309116 dram_eff=0.1841
bk0: 1144a 1305349i bk1: 1456a 1302885i bk2: 1208a 1302462i bk3: 1360a 1301286i bk4: 1542a 1296842i bk5: 1602a 1297596i bk6: 1724a 1295967i bk7: 1672a 1296362i bk8: 1890a 1290470i bk9: 2054a 1288806i bk10: 2016a 1287583i bk11: 2034a 1286996i bk12: 1346a 1300535i bk13: 1422a 1301120i bk14: 1274a 1302926i bk15: 1356a 1303303i 
dram_util_bins: 0 0 0 0 0 0 0 0 0 0
dram_eff_bins: 0 0 0 0 0 0 0 0 0 0
mrqq: max=16 avg=0.0763149
Memory Partition 4: 
Cache L2_bank_008:
MSHR contents

Cache L2_bank_009:
MSHR contents

In Dram Latency Queue (total = 0): 
DRAM[4]: 16 bks, busW=4 BL=8 CL=12, tRRD=2 tCCD=6, tRCD=12 tRAS=28 tRP=12 tRC=40
n_cmd=1314252 n_nop=1270240 n_act=7103 n_pre=7087 n_req=15583 n_rd=26350 n_write=3472 bw_util=0.04538
n_activity=317300 dram_eff=0.188
bk0: 1564a 1301112i bk1: 1368a 1303090i bk2: 1488a 1299831i bk3: 1368a 1300767i bk4: 1684a 1294929i bk5: 1526a 1298119i bk6: 1870a 1294339i bk7: 1758a 1294578i bk8: 2132a 1288088i bk9: 1922a 1289397i bk10: 2080a 1287572i bk11: 1986a 1288627i bk12: 1520a 1298767i bk13: 1280a 1301790i bk14: 1434a 1303100i bk15: 1370a 1303512i 
dram_util_bins: 0 0 0 0 0 0 0 0 0 0
dram_eff_bins: 0 0 0 0 0 0 0 0 0 0
mrqq: max=16 avg=0.087958
Memory Partition 5: 
Cache L2_bank_010:
MSHR contents

Cache L2_bank_011:
MSHR contents

In Dram Latency Queue (total = 0): 
DRAM[5]: 16 bks, busW=4 BL=8 CL=12, tRRD=2 tCCD=6, tRCD=12 tRAS=28 tRP=12 tRC=40
n_cmd=1314252 n_nop=1271478 n_act=6946 n_pre=6930 n_req=15112 n_rd=25456 n_write=3442 bw_util=0.04398
n_activity=312717 dram_eff=0.1848
bk0: 1472a 1302471i bk1: 1178a 1304392i bk2: 1432a 1300372i bk3: 1224a 1302091i bk4: 1620a 1296698i bk5: 1534a 1298239i bk6: 1750a 1295428i bk7: 1700a 1295517i bk8: 2082a 1289172i bk9: 1928a 1288660i bk10: 2184a 1286057i bk11: 1966a 1288574i bk12: 1414a 1300114i bk13: 1232a 1302927i bk14: 1410a 1302418i bk15: 1330a 1303688i 
dram_util_bins: 0 0 0 0 0 0 0 0 0 0
dram_eff_bins: 0 0 0 0 0 0 0 0 0 0
mrqq: max=16 avg=0.0796864

========= L2 cache stats =========
L2_cache_bank[0]: Access = 92777, Miss = 6830, Miss_rate = 0.074, Pending_hits = 58, Reservation_fails = 262
L2_cache_bank[1]: Access = 92775, Miss = 6156, Miss_rate = 0.066, Pending_hits = 43, Reservation_fails = 229
L2_cache_bank[2]: Access = 92554, Miss = 6414, Miss_rate = 0.069, Pending_hits = 72, Reservation_fails = 114
L2_cache_bank[3]: Access = 95066, Miss = 5849, Miss_rate = 0.062, Pending_hits = 49, Reservation_fails = 0
L2_cache_bank[4]: Access = 92884, Miss = 6184, Miss_rate = 0.067, Pending_hits = 52, Reservation_fails = 179
L2_cache_bank[5]: Access = 98019, Miss = 6664, Miss_rate = 0.068, Pending_hits = 42, Reservation_fails = 431
L2_cache_bank[6]: Access = 93112, Miss = 6072, Miss_rate = 0.065, Pending_hits = 42, Reservation_fails = 1
L2_cache_bank[7]: Access = 95520, Miss = 6478, Miss_rate = 0.068, Pending_hits = 59, Reservation_fails = 0
L2_cache_bank[8]: Access = 93008, Miss = 6886, Miss_rate = 0.074, Pending_hits = 49, Reservation_fails = 50
L2_cache_bank[9]: Access = 95465, Miss = 6289, Miss_rate = 0.066, Pending_hits = 44, Reservation_fails = 241
L2_cache_bank[10]: Access = 93455, Miss = 6682, Miss_rate = 0.071, Pending_hits = 62, Reservation_fails = 0
L2_cache_bank[11]: Access = 96143, Miss = 6046, Miss_rate = 0.063, Pending_hits = 69, Reservation_fails = 0
L2_total_cache_accesses = 1130778
L2_total_cache_misses = 76550
L2_total_cache_miss_rate = 0.0677
L2_total_cache_pending_hits = 641
L2_total_cache_reservation_fails = 1507
L2_total_cache_breakdown:
	L2_cache_stats_breakdown[GLOBAL_ACC_R][HIT] = 825923
	L2_cache_stats_breakdown[GLOBAL_ACC_R][HIT_RESERVED] = 25
	L2_cache_stats_breakdown[GLOBAL_ACC_R][MISS] = 69277
	L2_cache_stats_breakdown[GLOBAL_ACC_R][RESERVATION_FAIL] = 748
	L2_cache_stats_breakdown[CONST_ACC_R][HIT] = 11
	L2_cache_stats_breakdown[CONST_ACC_R][HIT_RESERVED] = 3
	L2_cache_stats_breakdown[CONST_ACC_R][MISS] = 1
	L2_cache_stats_breakdown[CONST_ACC_R][RESERVATION_FAIL] = 111
	L2_cache_stats_breakdown[GLOBAL_ACC_W][HIT] = 227581
	L2_cache_stats_breakdown[GLOBAL_ACC_W][HIT_RESERVED] = 601
	L2_cache_stats_breakdown[GLOBAL_ACC_W][MISS] = 7266
	L2_cache_stats_breakdown[GLOBAL_ACC_W][RESERVATION_FAIL] = 239
	L2_cache_stats_breakdown[INST_ACC_R][HIT] = 72
	L2_cache_stats_breakdown[INST_ACC_R][HIT_RESERVED] = 12
	L2_cache_stats_breakdown[INST_ACC_R][MISS] = 6
	L2_cache_stats_breakdown[INST_ACC_R][RESERVATION_FAIL] = 409
L2_cache_data_port_util = 0.298
L2_cache_fill_port_util = 0.026

icnt_total_pkts_mem_to_simt=4712068
icnt_total_pkts_simt_to_mem=1366488
LD_mem_lat_dist  0 0 0 0 0 0 0 0 0 0 0 0 0 0 0 0 0 0 0 0 0 0 0 0 0 0 0
ST_mem_lat_dist  0 0 0 0 0 0 0 0 0 0 0 0 0 0 0 0 0 0 0 0 0 0 0 0 0 0 0
----------------------------Interconnect-DETAILS--------------------------------
Class 0:
Packet latency average = 10.65
	minimum = 6
	maximum = 44
Network latency average = 9.962
	minimum = 6
	maximum = 39
Slowest packet = 2261313
Flit latency average = 8.31533
	minimum = 6
	maximum = 35
Slowest flit = 6077621
Fragmentation average = 0
	minimum = 0
	maximum = 0
Injected packet rate average = 0.017052
	minimum = 0.014733 (at node 0)
	maximum = 0.0202578 (at node 16)
Accepted packet rate average = 0.017052
	minimum = 0.014733 (at node 0)
	maximum = 0.0202578 (at node 16)
Injected flit rate average = 0.0511561
	minimum = 0.014733 (at node 0)
	maximum = 0.101289 (at node 16)
Accepted flit rate average= 0.0511561
	minimum = 0.0184162 (at node 15)
	maximum = 0.092081 (at node 3)
Injected packet length average = 3
Accepted packet length average = 3
Total in-flight flits = 0 (0 measured)
====== Overall Traffic Statistics ======
====== Traffic class 0 ======
Packet latency average = 26.5018 (12 samples)
	minimum = 6 (12 samples)
	maximum = 184.667 (12 samples)
Network latency average = 17.715 (12 samples)
	minimum = 6 (12 samples)
	maximum = 145.25 (12 samples)
Flit latency average = 17.8743 (12 samples)
	minimum = 6 (12 samples)
	maximum = 143.583 (12 samples)
Fragmentation average = 0.00419094 (12 samples)
	minimum = 0 (12 samples)
	maximum = 44.25 (12 samples)
Injected packet rate average = 0.0529976 (12 samples)
	minimum = 0.0378311 (12 samples)
	maximum = 0.126706 (12 samples)
Accepted packet rate average = 0.0529976 (12 samples)
	minimum = 0.0378311 (12 samples)
	maximum = 0.126706 (12 samples)
Injected flit rate average = 0.116766 (12 samples)
	minimum = 0.0546268 (12 samples)
	maximum = 0.249945 (12 samples)
Accepted flit rate average = 0.116766 (12 samples)
	minimum = 0.0606228 (12 samples)
	maximum = 0.311266 (12 samples)
Injected packet size average = 2.20323 (12 samples)
Accepted packet size average = 2.20323 (12 samples)
Hops average = 1 (12 samples)
----------------------------END-of-Interconnect-DETAILS-------------------------


gpgpu_simulation_time = 0 days, 0 hrs, 9 min, 29 sec (569 sec)
gpgpu_simulation_rate = 23499 (inst/sec)
gpgpu_simulation_rate = 1749 (cycle/sec)
Kernel Executed 6 times
Result stored in result.txt
