

        *** GPGPU-Sim Simulator Version 3.2.2  [build 0] ***


GPGPU-Sim PTX: simulation mode 0 (can change with PTX_SIM_MODE_FUNC environment variable:
               1=functional simulation only, 0=detailed performance simulator)
GPGPU-Sim: Configuration options:

-network_mode                           1 # Interconnection network mode
-inter_config_file   config_fermi_islip.icnt # Interconnection network config file
-gpgpu_ptx_use_cuobjdump                    1 # Use cuobjdump to extract ptx and sass from binaries
-gpgpu_experimental_lib_support                    0 # Try to extract code from cuda libraries [Broken because of unknown cudaGetExportTable]
-gpgpu_ptx_convert_to_ptxplus                    0 # Convert SASS (native ISA) to ptxplus and run ptxplus
-gpgpu_ptx_force_max_capability                   20 # Force maximum compute capability
-gpgpu_ptx_inst_debug_to_file                    0 # Dump executed instructions' debug information to file
-gpgpu_ptx_inst_debug_file       inst_debug.txt # Executed instructions' debug output file
-gpgpu_ptx_inst_debug_thread_uid                    1 # Thread UID for executed instructions' debug output
-gpgpu_simd_model                       1 # 1 = post-dominator
-gpgpu_shader_core_pipeline              1536:32 # shader core pipeline config, i.e., {<nthread>:<warpsize>}
-gpgpu_tex_cache:l1  4:128:24,L:R:m:N:L,F:128:4,128:2 # per-shader L1 texture cache  (READ-ONLY) config  {<nsets>:<bsize>:<assoc>,<rep>:<wr>:<alloc>:<wr_alloc>,<mshr>:<N>:<merge>,<mq>:<rf>}
-gpgpu_const_cache:l1 64:64:2,L:R:f:N:L,A:2:32,4 # per-shader L1 constant memory cache  (READ-ONLY) config  {<nsets>:<bsize>:<assoc>,<rep>:<wr>:<alloc>:<wr_alloc>,<mshr>:<N>:<merge>,<mq>} 
-gpgpu_cache:il1     4:128:4,L:R:f:N:L,A:2:32,4 # shader L1 instruction cache config  {<nsets>:<bsize>:<assoc>,<rep>:<wr>:<alloc>:<wr_alloc>,<mshr>:<N>:<merge>,<mq>} 
-gpgpu_cache:dl1     32:128:1,L:L:m:N:H,A:32:8,8 # per-shader L1 data cache config  {<nsets>:<bsize>:<assoc>,<rep>:<wr>:<alloc>:<wr_alloc>,<mshr>:<N>:<merge>,<mq> | none}
-gpgpu_cache:dl1PrefL1                 none # per-shader L1 data cache config  {<nsets>:<bsize>:<assoc>,<rep>:<wr>:<alloc>:<wr_alloc>,<mshr>:<N>:<merge>,<mq> | none}
-gpgpu_cache:dl1PreShared                 none # per-shader L1 data cache config  {<nsets>:<bsize>:<assoc>,<rep>:<wr>:<alloc>:<wr_alloc>,<mshr>:<N>:<merge>,<mq> | none}
-gmem_skip_L1D                          0 # global memory access skip L1D cache (implements -Xptxas -dlcm=cg, default=no skip)
-gpgpu_perfect_mem                      0 # enable perfect memory mode (no cache miss)
-n_regfile_gating_group                    4 # group of lanes that should be read/written together)
-gpgpu_clock_gated_reg_file                    0 # enable clock gated reg file for power calculations
-gpgpu_clock_gated_lanes                    0 # enable clock gated lanes for power calculations
-gpgpu_shader_registers                32768 # Number of registers per shader core. Limits number of concurrent CTAs. (default 8192)
-gpgpu_shader_cta                       8 # Maximum number of concurrent CTAs in shader (default 8)
-gpgpu_num_cta_barriers                   16 # Maximum number of named barriers per CTA (default 16)
-gpgpu_n_clusters                      15 # number of processing clusters
-gpgpu_n_cores_per_cluster                    1 # number of simd cores per cluster
-gpgpu_n_cluster_ejection_buffer_size                    8 # number of packets in ejection buffer
-gpgpu_n_ldst_response_buffer_size                    2 # number of response packets in ld/st unit ejection buffer
-gpgpu_shmem_size                   16384 # Size of shared memory per shader core (default 16kB)
-gpgpu_shmem_size                   49152 # Size of shared memory per shader core (default 16kB)
-gpgpu_shmem_size_PrefL1                16384 # Size of shared memory per shader core (default 16kB)
-gpgpu_shmem_size_PrefShared                16384 # Size of shared memory per shader core (default 16kB)
-gpgpu_shmem_num_banks                   32 # Number of banks in the shared memory in each shader core (default 16)
-gpgpu_shmem_limited_broadcast                    0 # Limit shared memory to do one broadcast per cycle (default on)
-gpgpu_shmem_warp_parts                    1 # Number of portions a warp is divided into for shared memory bank conflict check 
-gpgpu_warpdistro_shader                   -1 # Specify which shader core to collect the warp size distribution from
-gpgpu_warp_issue_shader                    0 # Specify which shader core to collect the warp issue distribution from
-gpgpu_local_mem_map                    1 # Mapping from local memory space address to simulated GPU physical address space (default = enabled)
-gpgpu_num_reg_banks                   16 # Number of register banks (default = 8)
-gpgpu_reg_bank_use_warp_id                    0 # Use warp ID in mapping registers to banks (default = off)
-gpgpu_operand_collector_num_units_sp                    6 # number of collector units (default = 4)
-gpgpu_operand_collector_num_units_sfu                    8 # number of collector units (default = 4)
-gpgpu_operand_collector_num_units_mem                    2 # number of collector units (default = 2)
-gpgpu_operand_collector_num_units_gen                    0 # number of collector units (default = 0)
-gpgpu_operand_collector_num_in_ports_sp                    2 # number of collector unit in ports (default = 1)
-gpgpu_operand_collector_num_in_ports_sfu                    1 # number of collector unit in ports (default = 1)
-gpgpu_operand_collector_num_in_ports_mem                    1 # number of collector unit in ports (default = 1)
-gpgpu_operand_collector_num_in_ports_gen                    0 # number of collector unit in ports (default = 0)
-gpgpu_operand_collector_num_out_ports_sp                    2 # number of collector unit in ports (default = 1)
-gpgpu_operand_collector_num_out_ports_sfu                    1 # number of collector unit in ports (default = 1)
-gpgpu_operand_collector_num_out_ports_mem                    1 # number of collector unit in ports (default = 1)
-gpgpu_operand_collector_num_out_ports_gen                    0 # number of collector unit in ports (default = 0)
-gpgpu_coalesce_arch                   13 # Coalescing arch (default = 13, anything else is off for now)
-gpgpu_num_sched_per_core                    2 # Number of warp schedulers per core
-gpgpu_max_insn_issue_per_warp                    1 # Max number of instructions that can be issued per warp in one cycle by scheduler
-gpgpu_simt_core_sim_order                    1 # Select the simulation order of cores in a cluster (0=Fix, 1=Round-Robin)
-gpgpu_pipeline_widths        2,1,1,2,1,1,2 # Pipeline widths ID_OC_SP,ID_OC_SFU,ID_OC_MEM,OC_EX_SP,OC_EX_SFU,OC_EX_MEM,EX_WB
-gpgpu_num_sp_units                     2 # Number of SP units (default=1)
-gpgpu_num_sfu_units                    1 # Number of SF units (default=1)
-gpgpu_num_mem_units                    1 # Number if ldst units (default=1) WARNING: not hooked up to anything
-gpgpu_scheduler                      gto # Scheduler configuration: < lrr | gto | two_level_active > If two_level_active:<num_active_warps>:<inner_prioritization>:<outer_prioritization>For complete list of prioritization values see shader.h enum scheduler_prioritization_typeDefault: gto
-gpgpu_dram_scheduler                    1 # 0 = fifo, 1 = FR-FCFS (defaul)
-gpgpu_dram_partition_queues              8:8:8:8 # i2$:$2d:d2$:$2i
-l2_ideal                               0 # Use a ideal L2 cache that always hit
-gpgpu_cache:dl2     64:128:8,L:B:m:W:L,A:32:4,4:0,32 # unified banked L2 data cache config  {<nsets>:<bsize>:<assoc>,<rep>:<wr>:<alloc>:<wr_alloc>,<mshr>:<N>:<merge>,<mq>}
-gpgpu_cache:dl2_texture_only                    0 # L2 cache used for texture only
-gpgpu_n_mem                            6 # number of memory modules (e.g. memory controllers) in gpu
-gpgpu_n_sub_partition_per_mchannel                    2 # number of memory subpartition in each memory module
-gpgpu_n_mem_per_ctrlr                    2 # number of memory chips per memory controller
-gpgpu_memlatency_stat                   14 # track and display latency statistics 0x2 enables MC, 0x4 enables queue logs
-gpgpu_frfcfs_dram_sched_queue_size                   16 # 0 = unlimited (default); # entries per chip
-gpgpu_dram_return_queue_size                  116 # 0 = unlimited (default); # entries per chip
-gpgpu_dram_buswidth                    4 # default = 4 bytes (8 bytes per cycle at DDR)
-gpgpu_dram_burst_length                    8 # Burst length of each DRAM request (default = 4 data bus cycle)
-dram_data_command_freq_ratio                    4 # Frequency ratio between DRAM data bus and command bus (default = 2 times, i.e. DDR)
-gpgpu_dram_timing_opt nbk=16:CCD=2:RRD=6:RCD=12:RAS=28:RP=12:RC=40: CL=12:WL=4:CDLR=5:WR=12:nbkgrp=4:CCDL=3:RTPL=2 # DRAM timing parameters = {nbk:tCCD:tRRD:tRCD:tRAS:tRP:tRC:CL:WL:tCDLR:tWR:nbkgrp:tCCDL:tRTPL}
-rop_latency                          120 # ROP queue latency (default 85)
-dram_latency                         100 # DRAM latency (default 30)
-gpgpu_mem_addr_mapping dramid@8;00000000.00000000.00000000.00000000.0000RRRR.RRRRRRRR.BBBCCCCB.CCSSSSSS # mapping memory address to dram model {dramid@<start bit>;<memory address map>}
-gpgpu_mem_addr_test                    0 # run sweep test to check address mapping for aliased address
-gpgpu_mem_address_mask                    1 # 0 = old addressing mask, 1 = new addressing mask, 2 = new add. mask + flipped bank sel and chip sel bits
-gpuwattch_xml_file  gpuwattch_gtx480.xml # GPUWattch XML file
-power_simulation_enabled                    1 # Turn on power simulator (1=On, 0=Off)
-power_per_cycle_dump                    0 # Dump detailed power output each cycle
-power_trace_enabled                    0 # produce a file for the power trace (1=On, 0=Off)
-power_trace_zlevel                     6 # Compression level of the power trace output log (0=no comp, 9=highest)
-steady_power_levels_enabled                    0 # produce a file for the steady power levels (1=On, 0=Off)
-steady_state_definition                  8:4 # allowed deviation:number of samples
-gpgpu_max_cycle                        0 # terminates gpu simulation early (0 = no limit)
-gpgpu_max_insn                         0 # terminates gpu simulation early (0 = no limit)
-gpgpu_max_cta                          0 # terminates gpu simulation early (0 = no limit)
-gpgpu_runtime_stat                   500 # display runtime statistics such as dram utilization {<freq>:<flag>}
-liveness_message_freq                    1 # Minimum number of seconds between simulation liveness messages (0 = always print)
-gpgpu_flush_l1_cache                    0 # Flush L1 cache at the end of each kernel call
-gpgpu_flush_l2_cache                    0 # Flush L2 cache at the end of each kernel call
-gpgpu_deadlock_detect                    1 # Stop the simulation at deadlock (1=on (default), 0=off)
-gpgpu_ptx_instruction_classification                    0 # if enabled will classify ptx instruction types per kernel (Max 255 kernels now)
-gpgpu_ptx_sim_mode                     0 # Select between Performance (default) or Functional simulation (1)
-gpgpu_clock_domains 700.0:700.0:700.0:924.0 # Clock Domain Frequencies in MhZ {<Core Clock>:<ICNT Clock>:<L2 Clock>:<DRAM Clock>}
-gpgpu_max_concurrent_kernel                    8 # maximum kernels that can run concurrently on GPU
-gpgpu_cflog_interval                    0 # Interval between each snapshot in control flow logger
-visualizer_enabled                     0 # Turn on visualizer output (1=On, 0=Off)
-visualizer_outputfile                 NULL # Specifies the output log file for visualizer
-visualizer_zlevel                      6 # Compression level of the visualizer output log (0=no comp, 9=highest)
-trace_enabled                          0 # Turn on traces
-trace_components                    none # comma seperated list of traces to enable. Complete list found in trace_streams.tup. Default none
-trace_sampling_core                    0 # The core which is printed using CORE_DPRINTF. Default 0
-trace_sampling_memory_partition                   -1 # The memory partition which is printed using MEMPART_DPRINTF. Default -1 (i.e. all)
-enable_ptx_file_line_stats                    1 # Turn on PTX source line statistic profiling. (1 = On)
-ptx_line_stats_filename gpgpu_inst_stats.txt # Output file for PTX source line statistics.
-save_embedded_ptx                      0 # saves ptx files embedded in binary as <n>.ptx
-keep                                   0 # keep intermediate files created by GPGPU-Sim when interfacing with external programs
-gpgpu_ptx_save_converted_ptxplus                    0 # Saved converted ptxplus to a file
-ptx_opcode_latency_int         4,13,4,5,145 # Opcode latencies for integers <ADD,MAX,MUL,MAD,DIV>Default 1,1,19,25,145
-ptx_opcode_latency_fp          4,13,4,5,39 # Opcode latencies for single precision floating points <ADD,MAX,MUL,MAD,DIV>Default 1,1,1,1,30
-ptx_opcode_latency_dp         8,19,8,8,330 # Opcode latencies for double precision floating points <ADD,MAX,MUL,MAD,DIV>Default 8,8,8,8,335
-ptx_opcode_initiation_int            1,2,2,1,8 # Opcode initiation intervals for integers <ADD,MAX,MUL,MAD,DIV>Default 1,1,4,4,32
-ptx_opcode_initiation_fp            1,2,1,1,4 # Opcode initiation intervals for single precision floating points <ADD,MAX,MUL,MAD,DIV>Default 1,1,1,1,5
-ptx_opcode_initiation_dp         8,16,8,8,130 # Opcode initiation intervals for double precision floating points <ADD,MAX,MUL,MAD,DIV>Default 8,8,8,8,130
DRAM Timing Options:
nbk                                    16 # number of banks
CCD                                     2 # column to column delay
RRD                                     6 # minimal delay between activation of rows in different banks
RCD                                    12 # row to column delay
RAS                                    28 # time needed to activate row
RP                                     12 # time needed to precharge (deactivate) row
RC                                     40 # row cycle time
CDLR                                    5 # switching from write to read (changes tWTR)
WR                                     12 # last data-in to row precharge
CL                                     12 # CAS latency
WL                                      4 # Write latency
nbkgrp                                  4 # number of bank groups
CCDL                                    3 # column to column delay between accesses to different bank groups
RTPL                                    2 # read to precharge delay between accesses to different bank groups
Total number of memory sub partition = 12
addr_dec_mask[CHIP]  = 0000000000000000 	high:64 low:0
addr_dec_mask[BK]    = 000000000000e100 	high:16 low:8
addr_dec_mask[ROW]   = 000000000fff0000 	high:28 low:16
addr_dec_mask[COL]   = 0000000000001eff 	high:13 low:0
addr_dec_mask[BURST] = 000000000000003f 	high:6 low:0
sub_partition_id_mask = 0000000000000100
GPGPU-Sim uArch: clock freqs: 700000000.000000:700000000.000000:700000000.000000:924000000.000000
GPGPU-Sim uArch: clock periods: 0.00000000142857142857:0.00000000142857142857:0.00000000142857142857:0.00000000108225108225
*** Initializing Memory Statistics ***
GPGPU-Sim uArch: interconnect node map (shaderID+MemID to icntID)
GPGPU-Sim uArch: Memory nodes ID start from index: 15
GPGPU-Sim uArch:    0   1   2   3   4
GPGPU-Sim uArch:    5   6   7   8   9
GPGPU-Sim uArch:   10  11  12  13  14
GPGPU-Sim uArch:   15  16  17  18  19
GPGPU-Sim uArch:   20  21  22  23  24
GPGPU-Sim uArch:   25  26
GPGPU-Sim uArch: interconnect node reverse map (icntID to shaderID+MemID)
GPGPU-Sim uArch: Memory nodes start from ID: 15
GPGPU-Sim uArch:    0   1   2   3   4
GPGPU-Sim uArch:    5   6   7   8   9
GPGPU-Sim uArch:   10  11  12  13  14
GPGPU-Sim uArch:   15  16  17  18  19
GPGPU-Sim uArch:   20  21  22  23  24
GPGPU-Sim uArch:   25  26
fa24d9d62d9e9d43df0eb292e3b27e2e  /home/scratch/adwait/applications/benchmarks/CUDA/BFS/gpgpu_ptx_sim__BFS
GPGPU-Sim uArch: performance model initialization complete.
GPGPU-Sim PTX: __cudaRegisterFatBinary, fat_cubin_handle = 1, filename=bfs.cu
self exe links to: /home/scratch/adwait/applications/benchmarks/CUDA/BFS/gpgpu_ptx_sim__BFS
Running md5sum using "md5sum /home/scratch/adwait/applications/benchmarks/CUDA/BFS/gpgpu_ptx_sim__BFS "
Running cuobjdump using "$CUDA_INSTALL_PATH/bin/cuobjdump -ptx -elf -sass /home/scratch/adwait/applications/benchmarks/CUDA/BFS/gpgpu_ptx_sim__BFS > _cuobjdump_complete_output_cwwWfG"
Parsing file _cuobjdump_complete_output_cwwWfG
######### cuobjdump parser ########
## Adding new section ELF
Adding arch: sm_20
Adding identifier: bfs.cu
## Adding new section PTX
Adding ptx filename: _cuobjdump_1.ptx
Adding arch: sm_20
Adding identifier: bfs.cu
Done parsing!!!
GPGPU-Sim PTX: __cudaRegisterFunction _Z6KernelP4NodePiPbS2_S1_S2_i : hostFun 0x0x404fc4, fat_cubin_handle = 1
GPGPU-Sim PTX: instruction assembly for function '_Z6KernelP4NodePiPbS2_S1_S2_i'...   done.
GPGPU-Sim PTX: finding reconvergence points for '_Z6KernelP4NodePiPbS2_S1_S2_i'...
GPGPU-Sim PTX: Finding dominators for '_Z6KernelP4NodePiPbS2_S1_S2_i'...
GPGPU-Sim PTX: Finding immediate dominators for '_Z6KernelP4NodePiPbS2_S1_S2_i'...
GPGPU-Sim PTX: Finding postdominators for '_Z6KernelP4NodePiPbS2_S1_S2_i'...
GPGPU-Sim PTX: Finding immediate postdominators for '_Z6KernelP4NodePiPbS2_S1_S2_i'...
GPGPU-Sim PTX: pre-decoding instructions for '_Z6KernelP4NodePiPbS2_S1_S2_i'...
GPGPU-Sim PTX: reconvergence points for _Z6KernelP4NodePiPbS2_S1_S2_i...
GPGPU-Sim PTX:  1 (potential) branch divergence @  PC=0x030 (_1.ptx:72) @%p1 bra $Lt_0_5122;
GPGPU-Sim PTX:    immediate post dominator      @  PC=0x1e8 (_1.ptx:141) exit;
GPGPU-Sim PTX:  2 (potential) branch divergence @  PC=0x068 (_1.ptx:79) @%p2 bra $Lt_0_5122;
GPGPU-Sim PTX:    immediate post dominator      @  PC=0x1e8 (_1.ptx:141) exit;
GPGPU-Sim PTX:  3 (potential) branch divergence @  PC=0x0e0 (_1.ptx:97) @%p3 bra $Lt_0_5122;
GPGPU-Sim PTX:    immediate post dominator      @  PC=0x1e8 (_1.ptx:141) exit;
GPGPU-Sim PTX:  4 (potential) branch divergence @  PC=0x138 (_1.ptx:111) @%p4 bra $Lt_0_4354;
GPGPU-Sim PTX:    immediate post dominator      @  PC=0x1c8 (_1.ptx:134) add.s32 %r11, %r11, 1;
GPGPU-Sim PTX:  5 (potential) branch divergence @  PC=0x1e0 (_1.ptx:137) @%p5 bra $Lt_0_4098;
GPGPU-Sim PTX:    immediate post dominator      @  PC=0x1e8 (_1.ptx:141) exit;
GPGPU-Sim PTX: ... end of reconvergence points for _Z6KernelP4NodePiPbS2_S1_S2_i
GPGPU-Sim PTX: ... done pre-decoding instructions for '_Z6KernelP4NodePiPbS2_S1_S2_i'.
GPGPU-Sim PTX: finished parsing EMBEDDED .ptx file _1.ptx
Adding _cuobjdump_1.ptx with cubin handle 1
GPGPU-Sim PTX: extracting embedded .ptx to temporary file "_ptx_xy4ueA"
Running: cat _ptx_xy4ueA | sed 's/.version 1.5/.version 1.4/' | sed 's/, texmode_independent//' | sed 's/\(\.extern \.const\[1\] .b8 \w\+\)\[\]/\1\[1\]/' | sed 's/const\[.\]/const\[0\]/g' > _ptx2_bEnrdu
GPGPU-Sim PTX: generating ptxinfo using "$CUDA_INSTALL_PATH/bin/ptxas --gpu-name=sm_20 -v _ptx2_bEnrdu --output-file  /dev/null 2> _ptx_xy4ueAinfo"
GPGPU-Sim PTX: Kernel '_Z6KernelP4NodePiPbS2_S1_S2_i' : regs=18, lmem=0, smem=0, cmem=84
GPGPU-Sim PTX: removing ptxinfo using "rm -f _ptx_xy4ueA _ptx2_bEnrdu _ptx_xy4ueAinfo"
GPGPU-Sim PTX: loading globals with explicit initializers... 
GPGPU-Sim PTX: finished loading globals (0 bytes total).
GPGPU-Sim PTX: loading constants with explicit initializers...  done.
Reading File
Input file: ./data/graph65536.txt
Read File
Copied Everything to GPU memory

GPGPU-Sim PTX: cudaLaunch for 0x0x404fc4 (mode=performance simulation) on stream 0
GPGPU-Sim PTX: pushing kernel '_Z6KernelP4NodePiPbS2_S1_S2_i' to stream 0, gridDim= (256,1,1) blockDim = (256,1,1) 
kernel '_Z6KernelP4NodePiPbS2_S1_S2_i' transfer to GPU hardware scheduler
GPGPU-Sim uArch: Shader 1 bind to kernel 1 '_Z6KernelP4NodePiPbS2_S1_S2_i'
GPGPU-Sim uArch: CTA/core = 6, limited by: threads regs
GPGPU-Sim uArch: core:  1, cta: 0 initialized @(1,0)
GPGPU-Sim uArch: Shader 2 bind to kernel 1 '_Z6KernelP4NodePiPbS2_S1_S2_i'
GPGPU-Sim uArch: core:  2, cta: 0 initialized @(1,0)
GPGPU-Sim uArch: Shader 3 bind to kernel 1 '_Z6KernelP4NodePiPbS2_S1_S2_i'
GPGPU-Sim uArch: core:  3, cta: 0 initialized @(1,0)
GPGPU-Sim uArch: Shader 4 bind to kernel 1 '_Z6KernelP4NodePiPbS2_S1_S2_i'
GPGPU-Sim uArch: core:  4, cta: 0 initialized @(1,0)
GPGPU-Sim uArch: Shader 5 bind to kernel 1 '_Z6KernelP4NodePiPbS2_S1_S2_i'
GPGPU-Sim uArch: core:  5, cta: 0 initialized @(1,0)
GPGPU-Sim uArch: Shader 6 bind to kernel 1 '_Z6KernelP4NodePiPbS2_S1_S2_i'
GPGPU-Sim uArch: core:  6, cta: 0 initialized @(1,0)
GPGPU-Sim uArch: Shader 7 bind to kernel 1 '_Z6KernelP4NodePiPbS2_S1_S2_i'
GPGPU-Sim uArch: core:  7, cta: 0 initialized @(1,0)
GPGPU-Sim uArch: Shader 8 bind to kernel 1 '_Z6KernelP4NodePiPbS2_S1_S2_i'
GPGPU-Sim uArch: core:  8, cta: 0 initialized @(1,0)
GPGPU-Sim uArch: Shader 9 bind to kernel 1 '_Z6KernelP4NodePiPbS2_S1_S2_i'
GPGPU-Sim uArch: core:  9, cta: 0 initialized @(1,0)
GPGPU-Sim uArch: Shader 10 bind to kernel 1 '_Z6KernelP4NodePiPbS2_S1_S2_i'
GPGPU-Sim uArch: core: 10, cta: 0 initialized @(1,0)
GPGPU-Sim uArch: Shader 11 bind to kernel 1 '_Z6KernelP4NodePiPbS2_S1_S2_i'
GPGPU-Sim uArch: core: 11, cta: 0 initialized @(1,0)
GPGPU-Sim uArch: Shader 12 bind to kernel 1 '_Z6KernelP4NodePiPbS2_S1_S2_i'
GPGPU-Sim uArch: core: 12, cta: 0 initialized @(1,0)
GPGPU-Sim uArch: Shader 13 bind to kernel 1 '_Z6KernelP4NodePiPbS2_S1_S2_i'
GPGPU-Sim uArch: core: 13, cta: 0 initialized @(1,0)
GPGPU-Sim uArch: Shader 14 bind to kernel 1 '_Z6KernelP4NodePiPbS2_S1_S2_i'
GPGPU-Sim uArch: core: 14, cta: 0 initialized @(1,0)
GPGPU-Sim uArch: Shader 0 bind to kernel 1 '_Z6KernelP4NodePiPbS2_S1_S2_i'
GPGPU-Sim uArch: core:  0, cta: 0 initialized @(1,0)
GPGPU-Sim uArch: core:  1, cta: 1 initialized @(2,0)
GPGPU-Sim uArch: core:  2, cta: 1 initialized @(2,0)
GPGPU-Sim uArch: core:  3, cta: 1 initialized @(2,0)
GPGPU-Sim uArch: core:  4, cta: 1 initialized @(2,0)
GPGPU-Sim uArch: core:  5, cta: 1 initialized @(2,0)
GPGPU-Sim uArch: core:  6, cta: 1 initialized @(2,0)
GPGPU-Sim uArch: core:  7, cta: 1 initialized @(2,0)
GPGPU-Sim uArch: core:  8, cta: 1 initialized @(2,0)
GPGPU-Sim uArch: core:  9, cta: 1 initialized @(2,0)
GPGPU-Sim uArch: core: 10, cta: 1 initialized @(2,0)
GPGPU-Sim uArch: core: 11, cta: 1 initialized @(2,0)
GPGPU-Sim uArch: core: 12, cta: 1 initialized @(2,0)
GPGPU-Sim uArch: core: 13, cta: 1 initialized @(2,0)
GPGPU-Sim uArch: core: 14, cta: 1 initialized @(2,0)
GPGPU-Sim uArch: core:  0, cta: 1 initialized @(2,0)
GPGPU-Sim uArch: core:  1, cta: 2 initialized @(3,0)
GPGPU-Sim uArch: core:  2, cta: 2 initialized @(3,0)
GPGPU-Sim uArch: core:  3, cta: 2 initialized @(3,0)
GPGPU-Sim uArch: core:  4, cta: 2 initialized @(3,0)
GPGPU-Sim uArch: core:  5, cta: 2 initialized @(3,0)
GPGPU-Sim uArch: core:  6, cta: 2 initialized @(3,0)
GPGPU-Sim uArch: core:  7, cta: 2 initialized @(3,0)
GPGPU-Sim uArch: core:  8, cta: 2 initialized @(3,0)
GPGPU-Sim uArch: core:  9, cta: 2 initialized @(3,0)
GPGPU-Sim uArch: core: 10, cta: 2 initialized @(3,0)
GPGPU-Sim uArch: core: 11, cta: 2 initialized @(3,0)
GPGPU-Sim uArch: core: 12, cta: 2 initialized @(3,0)
GPGPU-Sim uArch: core: 13, cta: 2 initialized @(3,0)
GPGPU-Sim uArch: core: 14, cta: 2 initialized @(3,0)
GPGPU-Sim uArch: core:  0, cta: 2 initialized @(3,0)
GPGPU-Sim uArch: core:  1, cta: 3 initialized @(4,0)
GPGPU-Sim uArch: core:  2, cta: 3 initialized @(4,0)
GPGPU-Sim uArch: core:  3, cta: 3 initialized @(4,0)
GPGPU-Sim uArch: core:  4, cta: 3 initialized @(4,0)
GPGPU-Sim uArch: core:  5, cta: 3 initialized @(4,0)
GPGPU-Sim uArch: core:  6, cta: 3 initialized @(4,0)
GPGPU-Sim uArch: core:  7, cta: 3 initialized @(4,0)
GPGPU-Sim uArch: core:  8, cta: 3 initialized @(4,0)
GPGPU-Sim uArch: core:  9, cta: 3 initialized @(4,0)
GPGPU-Sim uArch: core: 10, cta: 3 initialized @(4,0)
GPGPU-Sim uArch: core: 11, cta: 3 initialized @(4,0)
GPGPU-Sim uArch: core: 12, cta: 3 initialized @(4,0)
GPGPU-Sim uArch: core: 13, cta: 3 initialized @(4,0)
GPGPU-Sim uArch: core: 14, cta: 3 initialized @(4,0)
GPGPU-Sim uArch: core:  0, cta: 3 initialized @(4,0)
GPGPU-Sim uArch: core:  1, cta: 4 initialized @(5,0)
GPGPU-Sim uArch: core:  2, cta: 4 initialized @(5,0)
GPGPU-Sim uArch: core:  3, cta: 4 initialized @(5,0)
GPGPU-Sim uArch: core:  4, cta: 4 initialized @(5,0)
GPGPU-Sim uArch: core:  5, cta: 4 initialized @(5,0)
GPGPU-Sim uArch: core:  6, cta: 4 initialized @(5,0)
GPGPU-Sim uArch: core:  7, cta: 4 initialized @(5,0)
GPGPU-Sim uArch: core:  8, cta: 4 initialized @(5,0)
GPGPU-Sim uArch: core:  9, cta: 4 initialized @(5,0)
GPGPU-Sim uArch: core: 10, cta: 4 initialized @(5,0)
GPGPU-Sim uArch: core: 11, cta: 4 initialized @(5,0)
GPGPU-Sim uArch: core: 12, cta: 4 initialized @(5,0)
GPGPU-Sim uArch: core: 13, cta: 4 initialized @(5,0)
GPGPU-Sim uArch: core: 14, cta: 4 initialized @(5,0)
GPGPU-Sim uArch: core:  0, cta: 4 initialized @(5,0)
GPGPU-Sim uArch: core:  1, cta: 5 initialized @(6,0)
GPGPU-Sim uArch: core:  2, cta: 5 initialized @(6,0)
GPGPU-Sim uArch: core:  3, cta: 5 initialized @(6,0)
GPGPU-Sim uArch: core:  4, cta: 5 initialized @(6,0)
GPGPU-Sim uArch: core:  5, cta: 5 initialized @(6,0)
GPGPU-Sim uArch: core:  6, cta: 5 initialized @(6,0)
GPGPU-Sim uArch: core:  7, cta: 5 initialized @(6,0)
GPGPU-Sim uArch: core:  8, cta: 5 initialized @(6,0)
GPGPU-Sim uArch: core:  9, cta: 5 initialized @(6,0)
GPGPU-Sim uArch: core: 10, cta: 5 initialized @(6,0)
GPGPU-Sim uArch: core: 11, cta: 5 initialized @(6,0)
GPGPU-Sim uArch: core: 12, cta: 5 initialized @(6,0)
GPGPU-Sim uArch: core: 13, cta: 5 initialized @(6,0)
GPGPU-Sim uArch: core: 14, cta: 5 initialized @(6,0)
GPGPU-Sim uArch: core:  0, cta: 5 initialized @(6,0)
GPGPU-Sim PTX: 100000 instructions simulated : ctaid=(52,0,0) tid=(191,0,0)
GPGPU-Sim uArch: cycles simulated: 500  inst.: 92000 (ipc=184.0) sim_rate=92000 (inst/sec) elapsed = 0:0:00:01 / Wed May  1 14:43:49 2019
GPGPU-Sim PTX: 200000 instructions simulated : ctaid=(56,0,0) tid=(159,0,0)
GPGPU-Sim uArch: cycles simulated: 1000  inst.: 227361 (ipc=227.4) sim_rate=113680 (inst/sec) elapsed = 0:0:00:02 / Wed May  1 14:43:50 2019
GPGPU-Sim PTX: 300000 instructions simulated : ctaid=(67,0,0) tid=(221,0,0)
GPGPU-Sim uArch: Shader 0 finished CTA #0 (1247,0), 5 CTAs running
GPGPU-Sim uArch: core:  0, cta: 0 initialized @(1248,0)
GPGPU-Sim uArch: Shader 5 finished CTA #0 (1274,0), 5 CTAs running
GPGPU-Sim uArch: core:  5, cta: 0 initialized @(1275,0)
GPGPU-Sim uArch: Shader 2 finished CTA #0 (1279,0), 5 CTAs running
GPGPU-Sim uArch: Shader 2 finished CTA #1 (1279,0), 4 CTAs running
GPGPU-Sim uArch: core:  2, cta: 0 initialized @(1280,0)
GPGPU-Sim uArch: Shader 0 finished CTA #1 (1280,0), 5 CTAs running
GPGPU-Sim uArch: Shader 0 finished CTA #2 (1280,0), 4 CTAs running
GPGPU-Sim uArch: Shader 0 finished CTA #3 (1280,0), 3 CTAs running
GPGPU-Sim uArch: core:  0, cta: 1 initialized @(1281,0)
GPGPU-Sim uArch: core:  2, cta: 1 initialized @(1281,0)
GPGPU-Sim uArch: core:  0, cta: 2 initialized @(1282,0)
GPGPU-Sim uArch: core:  0, cta: 3 initialized @(1283,0)
GPGPU-Sim uArch: Shader 4 finished CTA #0 (1283,0), 5 CTAs running
GPGPU-Sim uArch: Shader 4 finished CTA #1 (1283,0), 4 CTAs running
GPGPU-Sim uArch: Shader 4 finished CTA #2 (1283,0), 3 CTAs running
GPGPU-Sim uArch: core:  4, cta: 0 initialized @(1284,0)
GPGPU-Sim uArch: core:  4, cta: 1 initialized @(1285,0)
GPGPU-Sim uArch: Shader 3 finished CTA #4 (1285,0), 5 CTAs running
GPGPU-Sim uArch: Shader 3 finished CTA #5 (1285,0), 4 CTAs running
GPGPU-Sim uArch: Shader 3 finished CTA #0 (1285,0), 3 CTAs running
GPGPU-Sim uArch: Shader 3 finished CTA #1 (1285,0), 2 CTAs running
GPGPU-Sim uArch: Shader 3 finished CTA #2 (1285,0), 1 CTAs running
GPGPU-Sim uArch: core:  3, cta: 0 initialized @(1286,0)
GPGPU-Sim uArch: core:  4, cta: 2 initialized @(1286,0)
GPGPU-Sim uArch: Shader 5 finished CTA #1 (1286,0), 5 CTAs running
GPGPU-Sim uArch: core:  5, cta: 1 initialized @(1287,0)
GPGPU-Sim uArch: core:  3, cta: 1 initialized @(1287,0)
GPGPU-Sim uArch: core:  3, cta: 2 initialized @(1288,0)
GPGPU-Sim uArch: core:  3, cta: 4 initialized @(1289,0)
GPGPU-Sim uArch: core:  3, cta: 5 initialized @(1290,0)
GPGPU-Sim uArch: Shader 2 finished CTA #2 (1302,0), 5 CTAs running
GPGPU-Sim uArch: Shader 2 finished CTA #3 (1302,0), 4 CTAs running
GPGPU-Sim uArch: core:  2, cta: 2 initialized @(1303,0)
GPGPU-Sim uArch: core:  2, cta: 3 initialized @(1304,0)
GPGPU-Sim uArch: Shader 5 finished CTA #2 (1305,0), 5 CTAs running
GPGPU-Sim uArch: core:  5, cta: 2 initialized @(1306,0)
GPGPU-Sim uArch: Shader 11 finished CTA #0 (1307,0), 5 CTAs running
GPGPU-Sim uArch: Shader 11 finished CTA #1 (1307,0), 4 CTAs running
GPGPU-Sim uArch: core: 11, cta: 0 initialized @(1308,0)
GPGPU-Sim uArch: Shader 1 finished CTA #5 (1308,0), 5 CTAs running
GPGPU-Sim uArch: Shader 4 finished CTA #3 (1308,0), 5 CTAs running
GPGPU-Sim uArch: Shader 4 finished CTA #4 (1308,0), 4 CTAs running
GPGPU-Sim uArch: Shader 7 finished CTA #0 (1308,0), 5 CTAs running
GPGPU-Sim uArch: core:  1, cta: 5 initialized @(1309,0)
GPGPU-Sim uArch: core:  4, cta: 3 initialized @(1309,0)
GPGPU-Sim uArch: core:  7, cta: 0 initialized @(1309,0)
GPGPU-Sim uArch: core: 11, cta: 1 initialized @(1309,0)
GPGPU-Sim uArch: Shader 1 finished CTA #1 (1309,0), 5 CTAs running
GPGPU-Sim uArch: Shader 1 finished CTA #2 (1309,0), 4 CTAs running
GPGPU-Sim uArch: core:  1, cta: 1 initialized @(1310,0)
GPGPU-Sim uArch: core:  4, cta: 4 initialized @(1310,0)
GPGPU-Sim uArch: Shader 3 finished CTA #3 (1310,0), 5 CTAs running
GPGPU-Sim uArch: Shader 13 finished CTA #0 (1310,0), 5 CTAs running
GPGPU-Sim uArch: core: 13, cta: 0 initialized @(1311,0)
GPGPU-Sim uArch: core:  1, cta: 2 initialized @(1311,0)
GPGPU-Sim uArch: core:  3, cta: 3 initialized @(1311,0)
GPGPU-Sim uArch: Shader 6 finished CTA #0 (1315,0), 5 CTAs running
GPGPU-Sim uArch: Shader 6 finished CTA #1 (1315,0), 4 CTAs running
GPGPU-Sim uArch: Shader 6 finished CTA #2 (1315,0), 3 CTAs running
GPGPU-Sim uArch: Shader 6 finished CTA #3 (1315,0), 2 CTAs running
GPGPU-Sim uArch: core:  6, cta: 0 initialized @(1316,0)
GPGPU-Sim uArch: core:  6, cta: 1 initialized @(1317,0)
GPGPU-Sim uArch: core:  6, cta: 2 initialized @(1318,0)
GPGPU-Sim uArch: core:  6, cta: 3 initialized @(1319,0)
GPGPU-Sim uArch: Shader 7 finished CTA #1 (1319,0), 5 CTAs running
GPGPU-Sim uArch: Shader 7 finished CTA #2 (1319,0), 4 CTAs running
GPGPU-Sim uArch: core:  7, cta: 1 initialized @(1320,0)
GPGPU-Sim uArch: core:  7, cta: 2 initialized @(1321,0)
GPGPU-Sim uArch: Shader 8 finished CTA #5 (1321,0), 5 CTAs running
GPGPU-Sim uArch: Shader 8 finished CTA #0 (1321,0), 4 CTAs running
GPGPU-Sim uArch: Shader 8 finished CTA #1 (1321,0), 3 CTAs running
GPGPU-Sim uArch: Shader 8 finished CTA #2 (1321,0), 2 CTAs running
GPGPU-Sim uArch: core:  8, cta: 0 initialized @(1322,0)
GPGPU-Sim uArch: Shader 13 finished CTA #1 (1322,0), 5 CTAs running
GPGPU-Sim uArch: core: 13, cta: 1 initialized @(1323,0)
GPGPU-Sim uArch: core:  8, cta: 1 initialized @(1323,0)
GPGPU-Sim uArch: core:  8, cta: 2 initialized @(1324,0)
GPGPU-Sim uArch: core:  8, cta: 5 initialized @(1325,0)
GPGPU-Sim uArch: Shader 9 finished CTA #0 (1329,0), 5 CTAs running
GPGPU-Sim uArch: core:  9, cta: 0 initialized @(1330,0)
GPGPU-Sim uArch: Shader 11 finished CTA #2 (1331,0), 5 CTAs running
GPGPU-Sim uArch: Shader 11 finished CTA #3 (1331,0), 4 CTAs running
GPGPU-Sim uArch: core: 11, cta: 2 initialized @(1332,0)
GPGPU-Sim uArch: core: 11, cta: 3 initialized @(1333,0)
GPGPU-Sim uArch: Shader 1 finished CTA #3 (1334,0), 5 CTAs running
GPGPU-Sim uArch: Shader 1 finished CTA #4 (1334,0), 4 CTAs running
GPGPU-Sim uArch: core:  1, cta: 3 initialized @(1335,0)
GPGPU-Sim uArch: core:  1, cta: 4 initialized @(1336,0)
GPGPU-Sim uArch: Shader 9 finished CTA #1 (1338,0), 5 CTAs running
GPGPU-Sim uArch: core:  9, cta: 1 initialized @(1339,0)
GPGPU-Sim uArch: Shader 13 finished CTA #2 (1342,0), 5 CTAs running
GPGPU-Sim uArch: core: 13, cta: 2 initialized @(1343,0)
GPGPU-Sim uArch: Shader 10 finished CTA #5 (1345,0), 5 CTAs running
GPGPU-Sim uArch: Shader 10 finished CTA #0 (1345,0), 4 CTAs running
GPGPU-Sim uArch: Shader 10 finished CTA #1 (1345,0), 3 CTAs running
GPGPU-Sim uArch: Shader 10 finished CTA #2 (1345,0), 2 CTAs running
GPGPU-Sim uArch: core: 10, cta: 0 initialized @(1346,0)
GPGPU-Sim uArch: Shader 8 finished CTA #3 (1346,0), 5 CTAs running
GPGPU-Sim uArch: Shader 8 finished CTA #4 (1346,0), 4 CTAs running
GPGPU-Sim uArch: core:  8, cta: 3 initialized @(1347,0)
GPGPU-Sim uArch: core: 10, cta: 1 initialized @(1347,0)
GPGPU-Sim uArch: core:  8, cta: 4 initialized @(1348,0)
GPGPU-Sim uArch: core: 10, cta: 2 initialized @(1348,0)
GPGPU-Sim uArch: Shader 6 finished CTA #4 (1348,0), 5 CTAs running
GPGPU-Sim uArch: Shader 6 finished CTA #5 (1348,0), 4 CTAs running
GPGPU-Sim uArch: core:  6, cta: 4 initialized @(1349,0)
GPGPU-Sim uArch: core: 10, cta: 5 initialized @(1349,0)
GPGPU-Sim uArch: core:  6, cta: 5 initialized @(1350,0)
GPGPU-Sim uArch: Shader 12 finished CTA #0 (1351,0), 5 CTAs running
GPGPU-Sim uArch: Shader 12 finished CTA #1 (1351,0), 4 CTAs running
GPGPU-Sim uArch: Shader 14 finished CTA #5 (1351,0), 5 CTAs running
GPGPU-Sim uArch: Shader 14 finished CTA #0 (1351,0), 4 CTAs running
GPGPU-Sim uArch: Shader 14 finished CTA #1 (1351,0), 3 CTAs running
GPGPU-Sim uArch: Shader 14 finished CTA #2 (1351,0), 2 CTAs running
GPGPU-Sim uArch: core: 12, cta: 0 initialized @(1352,0)
GPGPU-Sim uArch: core: 14, cta: 0 initialized @(1352,0)
GPGPU-Sim uArch: core: 12, cta: 1 initialized @(1353,0)
GPGPU-Sim uArch: core: 14, cta: 1 initialized @(1353,0)
GPGPU-Sim uArch: core: 14, cta: 2 initialized @(1354,0)
GPGPU-Sim uArch: core: 14, cta: 5 initialized @(1355,0)
GPGPU-Sim uArch: Shader 12 finished CTA #4 (1363,0), 5 CTAs running
GPGPU-Sim uArch: Shader 12 finished CTA #5 (1363,0), 4 CTAs running
GPGPU-Sim uArch: core: 12, cta: 4 initialized @(1364,0)
GPGPU-Sim uArch: core: 12, cta: 5 initialized @(1365,0)
GPGPU-Sim uArch: Shader 9 finished CTA #2 (1370,0), 5 CTAs running
GPGPU-Sim uArch: Shader 9 finished CTA #3 (1370,0), 4 CTAs running
GPGPU-Sim uArch: Shader 10 finished CTA #3 (1370,0), 5 CTAs running
GPGPU-Sim uArch: Shader 10 finished CTA #4 (1370,0), 4 CTAs running
GPGPU-Sim uArch: core:  9, cta: 2 initialized @(1371,0)
GPGPU-Sim uArch: core: 10, cta: 3 initialized @(1371,0)
GPGPU-Sim uArch: core:  9, cta: 3 initialized @(1372,0)
GPGPU-Sim uArch: core: 10, cta: 4 initialized @(1372,0)
GPGPU-Sim uArch: Shader 14 finished CTA #3 (1376,0), 5 CTAs running
GPGPU-Sim uArch: Shader 14 finished CTA #4 (1376,0), 4 CTAs running
GPGPU-Sim uArch: core: 14, cta: 3 initialized @(1377,0)
GPGPU-Sim uArch: core: 14, cta: 4 initialized @(1378,0)
GPGPU-Sim uArch: Shader 12 finished CTA #2 (1379,0), 5 CTAs running
GPGPU-Sim uArch: Shader 12 finished CTA #3 (1379,0), 4 CTAs running
GPGPU-Sim uArch: core: 12, cta: 2 initialized @(1380,0)
GPGPU-Sim uArch: core: 12, cta: 3 initialized @(1381,0)
GPGPU-Sim uArch: Shader 0 finished CTA #4 (1409,0), 5 CTAs running
GPGPU-Sim uArch: core:  0, cta: 4 initialized @(1410,0)
GPGPU-Sim PTX: 400000 instructions simulated : ctaid=(111,0,0) tid=(21,0,0)
GPGPU-Sim uArch: Shader 4 finished CTA #5 (1419,0), 5 CTAs running
GPGPU-Sim uArch: core:  4, cta: 5 initialized @(1420,0)
GPGPU-Sim uArch: Shader 0 finished CTA #5 (1457,0), 5 CTAs running
GPGPU-Sim uArch: core:  0, cta: 5 initialized @(1458,0)
GPGPU-Sim uArch: Shader 9 finished CTA #4 (1458,0), 5 CTAs running
GPGPU-Sim uArch: Shader 9 finished CTA #5 (1458,0), 4 CTAs running
GPGPU-Sim uArch: core:  9, cta: 4 initialized @(1459,0)
GPGPU-Sim uArch: core:  9, cta: 5 initialized @(1460,0)
GPGPU-Sim uArch: Shader 11 finished CTA #4 (1464,0), 5 CTAs running
GPGPU-Sim uArch: Shader 11 finished CTA #5 (1464,0), 4 CTAs running
GPGPU-Sim uArch: core: 11, cta: 4 initialized @(1465,0)
GPGPU-Sim uArch: core: 11, cta: 5 initialized @(1466,0)
GPGPU-Sim uArch: Shader 7 finished CTA #3 (1522,0), 5 CTAs running
GPGPU-Sim uArch: core:  7, cta: 3 initialized @(1523,0)
GPGPU-Sim PTX: 500000 instructions simulated : ctaid=(105,0,0) tid=(149,0,0)
GPGPU-Sim uArch: Shader 2 finished CTA #4 (1617,0), 5 CTAs running
GPGPU-Sim uArch: core:  2, cta: 4 initialized @(1618,0)
GPGPU-Sim uArch: Shader 0 finished CTA #0 (1711,0), 5 CTAs running
GPGPU-Sim uArch: core:  0, cta: 0 initialized @(1712,0)
GPGPU-Sim uArch: Shader 2 finished CTA #5 (1759,0), 5 CTAs running
GPGPU-Sim uArch: core:  2, cta: 5 initialized @(1760,0)
GPGPU-Sim uArch: Shader 0 finished CTA #1 (1768,0), 5 CTAs running
GPGPU-Sim uArch: core:  0, cta: 1 initialized @(1769,0)
GPGPU-Sim uArch: Shader 4 finished CTA #0 (1779,0), 5 CTAs running
GPGPU-Sim uArch: core:  4, cta: 0 initialized @(1780,0)
GPGPU-Sim uArch: Shader 0 finished CTA #2 (1782,0), 5 CTAs running
GPGPU-Sim uArch: core:  0, cta: 2 initialized @(1783,0)
GPGPU-Sim uArch: Shader 7 finished CTA #4 (1785,0), 5 CTAs running
GPGPU-Sim uArch: core:  7, cta: 4 initialized @(1786,0)
GPGPU-Sim uArch: Shader 1 finished CTA #5 (1788,0), 5 CTAs running
GPGPU-Sim uArch: core:  1, cta: 5 initialized @(1789,0)
GPGPU-Sim uArch: Shader 11 finished CTA #1 (1793,0), 5 CTAs running
GPGPU-Sim uArch: core: 11, cta: 1 initialized @(1794,0)
GPGPU-Sim uArch: Shader 4 finished CTA #1 (1795,0), 5 CTAs running
GPGPU-Sim uArch: Shader 4 finished CTA #2 (1795,0), 4 CTAs running
GPGPU-Sim uArch: core:  4, cta: 1 initialized @(1796,0)
GPGPU-Sim uArch: core:  4, cta: 2 initialized @(1797,0)
GPGPU-Sim uArch: Shader 3 finished CTA #0 (1801,0), 5 CTAs running
GPGPU-Sim uArch: core:  3, cta: 0 initialized @(1802,0)
GPGPU-Sim uArch: Shader 11 finished CTA #0 (1802,0), 5 CTAs running
GPGPU-Sim uArch: core: 11, cta: 0 initialized @(1803,0)
GPGPU-Sim uArch: Shader 6 finished CTA #0 (1804,0), 5 CTAs running
GPGPU-Sim uArch: core:  6, cta: 0 initialized @(1805,0)
GPGPU-Sim uArch: Shader 1 finished CTA #1 (1808,0), 5 CTAs running
GPGPU-Sim uArch: Shader 1 finished CTA #2 (1808,0), 4 CTAs running
GPGPU-Sim uArch: core:  1, cta: 1 initialized @(1809,0)
GPGPU-Sim uArch: core:  1, cta: 2 initialized @(1810,0)
GPGPU-Sim uArch: Shader 9 finished CTA #0 (1810,0), 5 CTAs running
GPGPU-Sim uArch: core:  9, cta: 0 initialized @(1811,0)
GPGPU-Sim uArch: Shader 8 finished CTA #0 (1817,0), 5 CTAs running
GPGPU-Sim uArch: core:  8, cta: 0 initialized @(1818,0)
GPGPU-Sim uArch: Shader 7 finished CTA #5 (1826,0), 5 CTAs running
GPGPU-Sim uArch: core:  7, cta: 5 initialized @(1827,0)
GPGPU-Sim PTX: 600000 instructions simulated : ctaid=(146,0,0) tid=(45,0,0)
GPGPU-Sim uArch: Shader 3 finished CTA #2 (1840,0), 5 CTAs running
GPGPU-Sim uArch: core:  3, cta: 2 initialized @(1841,0)
GPGPU-Sim uArch: Shader 7 finished CTA #0 (1842,0), 5 CTAs running
GPGPU-Sim uArch: core:  7, cta: 0 initialized @(1843,0)
GPGPU-Sim uArch: Shader 10 finished CTA #0 (1849,0), 5 CTAs running
GPGPU-Sim uArch: core: 10, cta: 0 initialized @(1850,0)
GPGPU-Sim uArch: Shader 8 finished CTA #1 (1853,0), 5 CTAs running
GPGPU-Sim uArch: core:  8, cta: 1 initialized @(1854,0)
GPGPU-Sim uArch: Shader 12 finished CTA #0 (1859,0), 5 CTAs running
GPGPU-Sim uArch: core: 12, cta: 0 initialized @(1860,0)
GPGPU-Sim uArch: Shader 3 finished CTA #1 (1860,0), 5 CTAs running
GPGPU-Sim uArch: core:  3, cta: 1 initialized @(1861,0)
GPGPU-Sim uArch: Shader 6 finished CTA #1 (1864,0), 5 CTAs running
GPGPU-Sim uArch: Shader 6 finished CTA #2 (1864,0), 4 CTAs running
GPGPU-Sim uArch: Shader 6 finished CTA #3 (1864,0), 3 CTAs running
GPGPU-Sim uArch: core:  6, cta: 1 initialized @(1865,0)
GPGPU-Sim uArch: Shader 0 finished CTA #3 (1865,0), 5 CTAs running
GPGPU-Sim uArch: core:  0, cta: 3 initialized @(1866,0)
GPGPU-Sim uArch: core:  6, cta: 2 initialized @(1866,0)
GPGPU-Sim uArch: core:  6, cta: 3 initialized @(1867,0)
GPGPU-Sim uArch: Shader 3 finished CTA #4 (1868,0), 5 CTAs running
GPGPU-Sim uArch: core:  3, cta: 4 initialized @(1869,0)
GPGPU-Sim uArch: Shader 14 finished CTA #1 (1877,0), 5 CTAs running
GPGPU-Sim uArch: core: 14, cta: 1 initialized @(1878,0)
GPGPU-Sim uArch: Shader 11 finished CTA #2 (1879,0), 5 CTAs running
GPGPU-Sim uArch: core: 11, cta: 2 initialized @(1880,0)
GPGPU-Sim uArch: Shader 8 finished CTA #2 (1887,0), 5 CTAs running
GPGPU-Sim uArch: core:  8, cta: 2 initialized @(1888,0)
GPGPU-Sim uArch: Shader 1 finished CTA #3 (1889,0), 5 CTAs running
GPGPU-Sim uArch: Shader 14 finished CTA #0 (1889,0), 5 CTAs running
GPGPU-Sim uArch: core: 14, cta: 0 initialized @(1890,0)
GPGPU-Sim uArch: core:  1, cta: 3 initialized @(1890,0)
GPGPU-Sim uArch: Shader 8 finished CTA #5 (1891,0), 5 CTAs running
GPGPU-Sim uArch: core:  8, cta: 5 initialized @(1892,0)
GPGPU-Sim uArch: Shader 14 finished CTA #2 (1897,0), 5 CTAs running
GPGPU-Sim uArch: core: 14, cta: 2 initialized @(1898,0)
GPGPU-Sim uArch: Shader 10 finished CTA #1 (1900,0), 5 CTAs running
GPGPU-Sim uArch: Shader 10 finished CTA #2 (1900,0), 4 CTAs running
GPGPU-Sim uArch: core: 10, cta: 1 initialized @(1901,0)
GPGPU-Sim uArch: core: 10, cta: 2 initialized @(1902,0)
GPGPU-Sim uArch: Shader 9 finished CTA #1 (1902,0), 5 CTAs running
GPGPU-Sim uArch: core:  9, cta: 1 initialized @(1903,0)
GPGPU-Sim uArch: Shader 12 finished CTA #4 (1909,0), 5 CTAs running
GPGPU-Sim uArch: core: 12, cta: 4 initialized @(1910,0)
GPGPU-Sim uArch: Shader 4 finished CTA #3 (1918,0), 5 CTAs running
GPGPU-Sim uArch: core:  4, cta: 3 initialized @(1919,0)
GPGPU-Sim uArch: Shader 9 finished CTA #2 (1928,0), 5 CTAs running
GPGPU-Sim uArch: core:  9, cta: 2 initialized @(1929,0)
GPGPU-Sim uArch: Shader 7 finished CTA #1 (1929,0), 5 CTAs running
GPGPU-Sim uArch: core:  7, cta: 1 initialized @(1930,0)
GPGPU-Sim uArch: Shader 11 finished CTA #3 (1931,0), 5 CTAs running
GPGPU-Sim uArch: core: 11, cta: 3 initialized @(1932,0)
GPGPU-Sim uArch: Shader 14 finished CTA #5 (1937,0), 5 CTAs running
GPGPU-Sim uArch: core: 14, cta: 5 initialized @(1938,0)
GPGPU-Sim uArch: Shader 3 finished CTA #5 (1941,0), 5 CTAs running
GPGPU-Sim uArch: core:  3, cta: 5 initialized @(1942,0)
GPGPU-Sim uArch: Shader 10 finished CTA #5 (1942,0), 5 CTAs running
GPGPU-Sim uArch: core: 10, cta: 5 initialized @(1943,0)
GPGPU-Sim uArch: Shader 0 finished CTA #4 (1948,0), 5 CTAs running
GPGPU-Sim uArch: core:  0, cta: 4 initialized @(1949,0)
GPGPU-Sim uArch: Shader 9 finished CTA #3 (1952,0), 5 CTAs running
GPGPU-Sim uArch: core:  9, cta: 3 initialized @(1953,0)
GPGPU-Sim uArch: Shader 4 finished CTA #4 (1954,0), 5 CTAs running
GPGPU-Sim uArch: core:  4, cta: 4 initialized @(1955,0)
GPGPU-Sim uArch: Shader 12 finished CTA #1 (1955,0), 5 CTAs running
GPGPU-Sim uArch: core: 12, cta: 1 initialized @(1956,0)
GPGPU-Sim PTX: 700000 instructions simulated : ctaid=(91,0,0) tid=(237,0,0)
GPGPU-Sim uArch: Shader 7 finished CTA #2 (1965,0), 5 CTAs running
GPGPU-Sim uArch: core:  7, cta: 2 initialized @(1966,0)
GPGPU-Sim uArch: Shader 12 finished CTA #5 (1975,0), 5 CTAs running
GPGPU-Sim uArch: core: 12, cta: 5 initialized @(1976,0)
GPGPU-Sim uArch: Shader 6 finished CTA #4 (1977,0), 5 CTAs running
GPGPU-Sim uArch: core:  6, cta: 4 initialized @(1978,0)
GPGPU-Sim uArch: Shader 8 finished CTA #3 (1986,0), 5 CTAs running
GPGPU-Sim uArch: core:  8, cta: 3 initialized @(1987,0)
GPGPU-Sim uArch: cycles simulated: 2000  inst.: 662448 (ipc=331.2) sim_rate=220816 (inst/sec) elapsed = 0:0:00:03 / Wed May  1 14:43:51 2019
GPGPU-Sim uArch: Shader 14 finished CTA #3 (2001,0), 5 CTAs running
GPGPU-Sim uArch: core: 14, cta: 3 initialized @(2002,0)
GPGPU-Sim uArch: Shader 11 finished CTA #4 (2009,0), 5 CTAs running
GPGPU-Sim uArch: Shader 11 finished CTA #5 (2009,0), 4 CTAs running
GPGPU-Sim uArch: core: 11, cta: 4 initialized @(2010,0)
GPGPU-Sim uArch: Shader 10 finished CTA #3 (2010,0), 5 CTAs running
GPGPU-Sim uArch: core: 10, cta: 3 initialized @(2011,0)
GPGPU-Sim uArch: core: 11, cta: 5 initialized @(2011,0)
GPGPU-Sim uArch: Shader 2 finished CTA #0 (2025,0), 5 CTAs running
GPGPU-Sim uArch: Shader 6 finished CTA #5 (2025,0), 5 CTAs running
GPGPU-Sim uArch: core:  2, cta: 0 initialized @(2026,0)
GPGPU-Sim uArch: core:  6, cta: 5 initialized @(2026,0)
GPGPU-Sim uArch: Shader 5 finished CTA #3 (2035,0), 5 CTAs running
GPGPU-Sim uArch: Shader 12 finished CTA #2 (2035,0), 5 CTAs running
GPGPU-Sim uArch: Shader 12 finished CTA #3 (2035,0), 4 CTAs running
GPGPU-Sim uArch: core: 12, cta: 2 initialized @(2036,0)
GPGPU-Sim uArch: core:  5, cta: 3 initialized @(2036,0)
GPGPU-Sim uArch: core: 12, cta: 3 initialized @(2037,0)
GPGPU-Sim uArch: Shader 9 finished CTA #4 (2047,0), 5 CTAs running
GPGPU-Sim uArch: Shader 9 finished CTA #5 (2047,0), 4 CTAs running
GPGPU-Sim uArch: core:  9, cta: 4 initialized @(2048,0)
GPGPU-Sim uArch: core:  9, cta: 5 initialized @(2049,0)
GPGPU-Sim uArch: Shader 14 finished CTA #4 (2049,0), 5 CTAs running
GPGPU-Sim uArch: core: 14, cta: 4 initialized @(2050,0)
GPGPU-Sim uArch: Shader 10 finished CTA #4 (2054,0), 5 CTAs running
GPGPU-Sim uArch: core: 10, cta: 4 initialized @(2055,0)
GPGPU-Sim uArch: Shader 2 finished CTA #1 (2058,0), 5 CTAs running
GPGPU-Sim uArch: core:  2, cta: 1 initialized @(2059,0)
GPGPU-Sim uArch: Shader 1 finished CTA #4 (2060,0), 5 CTAs running
GPGPU-Sim uArch: Shader 4 finished CTA #5 (2060,0), 5 CTAs running
GPGPU-Sim uArch: core:  4, cta: 5 initialized @(2061,0)
GPGPU-Sim uArch: core:  1, cta: 4 initialized @(2061,0)
GPGPU-Sim uArch: Shader 13 finished CTA #3 (2077,0), 5 CTAs running
GPGPU-Sim uArch: core: 13, cta: 3 initialized @(2078,0)
GPGPU-Sim PTX: 800000 instructions simulated : ctaid=(211,0,0) tid=(11,0,0)
GPGPU-Sim uArch: Shader 0 finished CTA #5 (2101,0), 5 CTAs running
GPGPU-Sim uArch: core:  0, cta: 5 initialized @(2102,0)
GPGPU-Sim uArch: Shader 3 finished CTA #3 (2133,0), 5 CTAs running
GPGPU-Sim uArch: core:  3, cta: 3 initialized @(2134,0)
GPGPU-Sim uArch: Shader 2 finished CTA #2 (2151,0), 5 CTAs running
GPGPU-Sim uArch: Shader 2 finished CTA #3 (2151,0), 4 CTAs running
GPGPU-Sim uArch: Shader 8 finished CTA #4 (2151,0), 5 CTAs running
GPGPU-Sim uArch: core:  8, cta: 4 initialized @(2152,0)
GPGPU-Sim uArch: core:  2, cta: 2 initialized @(2152,0)
GPGPU-Sim uArch: core:  2, cta: 3 initialized @(2153,0)
GPGPU-Sim uArch: Shader 7 finished CTA #3 (2157,0), 5 CTAs running
GPGPU-Sim uArch: core:  7, cta: 3 initialized @(2158,0)
GPGPU-Sim uArch: Shader 5 finished CTA #4 (2159,0), 5 CTAs running
GPGPU-Sim uArch: core:  5, cta: 4 initialized @(2160,0)
GPGPU-Sim uArch: Shader 0 finished CTA #0 (2171,0), 5 CTAs running
GPGPU-Sim uArch: core:  0, cta: 0 initialized @(2172,0)
GPGPU-Sim uArch: Shader 5 finished CTA #5 (2181,0), 5 CTAs running
GPGPU-Sim uArch: core:  5, cta: 5 initialized @(2182,0)
GPGPU-Sim uArch: Shader 13 finished CTA #4 (2202,0), 5 CTAs running
GPGPU-Sim uArch: core: 13, cta: 4 initialized @(2203,0)
GPGPU-Sim uArch: Shader 11 finished CTA #1 (2209,0), 5 CTAs running
GPGPU-Sim uArch: core: 11, cta: 1 initialized @(2210,0)
GPGPU-Sim uArch: Shader 9 finished CTA #0 (2222,0), 5 CTAs running
GPGPU-Sim uArch: core:  9, cta: 0 initialized @(2223,0)
GPGPU-Sim uArch: Shader 13 finished CTA #5 (2224,0), 5 CTAs running
GPGPU-Sim uArch: core: 13, cta: 5 initialized @(2225,0)
GPGPU-Sim uArch: Shader 4 finished CTA #0 (2225,0), 5 CTAs running
GPGPU-Sim uArch: core:  4, cta: 0 initialized @(2226,0)
GPGPU-Sim uArch: Shader 0 finished CTA #1 (2228,0), 5 CTAs running
GPGPU-Sim uArch: Shader 7 finished CTA #4 (2240,0), 5 CTAs running
GPGPU-Sim uArch: Shader 1 finished CTA #5 (2250,0), 5 CTAs running
GPGPU-Sim uArch: Shader 11 finished CTA #0 (2253,0), 5 CTAs running
GPGPU-Sim uArch: Shader 5 finished CTA #0 (2256,0), 5 CTAs running
GPGPU-Sim uArch: Shader 6 finished CTA #0 (2256,0), 5 CTAs running
GPGPU-Sim uArch: Shader 1 finished CTA #1 (2260,0), 4 CTAs running
GPGPU-Sim uArch: Shader 0 finished CTA #2 (2270,0), 4 CTAs running
GPGPU-Sim uArch: Shader 1 finished CTA #2 (2270,0), 3 CTAs running
GPGPU-Sim PTX: 900000 instructions simulated : ctaid=(246,0,0) tid=(139,0,0)
GPGPU-Sim uArch: Shader 7 finished CTA #5 (2271,0), 4 CTAs running
GPGPU-Sim uArch: Shader 3 finished CTA #0 (2283,0), 5 CTAs running
GPGPU-Sim uArch: Shader 5 finished CTA #1 (2284,0), 4 CTAs running
GPGPU-Sim uArch: Shader 4 finished CTA #1 (2286,0), 5 CTAs running
GPGPU-Sim uArch: Shader 8 finished CTA #0 (2298,0), 5 CTAs running
GPGPU-Sim uArch: Shader 13 finished CTA #0 (2298,0), 5 CTAs running
GPGPU-Sim uArch: Shader 5 finished CTA #2 (2301,0), 3 CTAs running
GPGPU-Sim uArch: Shader 0 finished CTA #3 (2304,0), 3 CTAs running
GPGPU-Sim uArch: Shader 12 finished CTA #0 (2315,0), 5 CTAs running
GPGPU-Sim uArch: Shader 3 finished CTA #2 (2319,0), 4 CTAs running
GPGPU-Sim uArch: Shader 13 finished CTA #1 (2326,0), 4 CTAs running
GPGPU-Sim uArch: Shader 10 finished CTA #0 (2338,0), 5 CTAs running
GPGPU-Sim uArch: Shader 1 finished CTA #3 (2339,0), 2 CTAs running
GPGPU-Sim uArch: Shader 7 finished CTA #0 (2340,0), 3 CTAs running
GPGPU-Sim uArch: Shader 4 finished CTA #2 (2341,0), 4 CTAs running
GPGPU-Sim uArch: Shader 3 finished CTA #1 (2344,0), 3 CTAs running
GPGPU-Sim uArch: Shader 9 finished CTA #1 (2344,0), 5 CTAs running
GPGPU-Sim uArch: Shader 13 finished CTA #2 (2350,0), 3 CTAs running
GPGPU-Sim uArch: Shader 0 finished CTA #4 (2357,0), 2 CTAs running
GPGPU-Sim uArch: Shader 2 finished CTA #4 (2360,0), 5 CTAs running
GPGPU-Sim uArch: Shader 11 finished CTA #2 (2360,0), 4 CTAs running
GPGPU-Sim uArch: Shader 6 finished CTA #1 (2362,0), 4 CTAs running
GPGPU-Sim uArch: Shader 14 finished CTA #1 (2366,0), 5 CTAs running
GPGPU-Sim uArch: Shader 8 finished CTA #1 (2370,0), 4 CTAs running
GPGPU-Sim uArch: Shader 8 finished CTA #2 (2383,0), 3 CTAs running
GPGPU-Sim uArch: Shader 6 finished CTA #2 (2387,0), 3 CTAs running
GPGPU-Sim uArch: Shader 6 finished CTA #3 (2391,0), 2 CTAs running
GPGPU-Sim uArch: Shader 7 finished CTA #1 (2391,0), 2 CTAs running
GPGPU-Sim uArch: Shader 8 finished CTA #5 (2399,0), 2 CTAs running
GPGPU-Sim uArch: Shader 14 finished CTA #0 (2399,0), 4 CTAs running
GPGPU-Sim uArch: Shader 3 finished CTA #4 (2405,0), 2 CTAs running
GPGPU-Sim uArch: Shader 5 finished CTA #3 (2408,0), 2 CTAs running
GPGPU-Sim uArch: Shader 10 finished CTA #1 (2417,0), 4 CTAs running
GPGPU-Sim uArch: Shader 11 finished CTA #3 (2418,0), 3 CTAs running
GPGPU-Sim uArch: Shader 2 finished CTA #5 (2426,0), 4 CTAs running
GPGPU-Sim uArch: Shader 7 finished CTA #2 (2426,0), 1 CTAs running
GPGPU-Sim uArch: Shader 9 finished CTA #2 (2428,0), 4 CTAs running
GPGPU-Sim uArch: Shader 12 finished CTA #4 (2432,0), 4 CTAs running
GPGPU-Sim uArch: Shader 13 finished CTA #3 (2434,0), 2 CTAs running
GPGPU-Sim uArch: Shader 3 finished CTA #5 (2435,0), 1 CTAs running
GPGPU-Sim uArch: Shader 11 finished CTA #4 (2451,0), 2 CTAs running
GPGPU-Sim uArch: Shader 14 finished CTA #2 (2454,0), 3 CTAs running
GPGPU-Sim uArch: Shader 8 finished CTA #3 (2456,0), 1 CTAs running
GPGPU-Sim uArch: Shader 9 finished CTA #3 (2460,0), 3 CTAs running
GPGPU-Sim uArch: Shader 2 finished CTA #0 (2465,0), 3 CTAs running
GPGPU-Sim uArch: Shader 0 finished CTA #5 (2474,0), 1 CTAs running
GPGPU-Sim uArch: Shader 14 finished CTA #5 (2479,0), 2 CTAs running
GPGPU-Sim uArch: Shader 6 finished CTA #4 (2480,0), 1 CTAs running
GPGPU-Sim uArch: Shader 12 finished CTA #1 (2487,0), 3 CTAs running
GPGPU-Sim uArch: Shader 6 finished CTA #5 (2491,0), 0 CTAs running
GPGPU-Sim uArch: Shader 6 empty (release kernel 1 '_Z6KernelP4NodePiPbS2_S1_S2_i').
GPGPU-Sim uArch: Shader 12 finished CTA #5 (2498,0), 2 CTAs running
GPGPU-Sim uArch: cycles simulated: 2500  inst.: 890833 (ipc=356.3) sim_rate=222708 (inst/sec) elapsed = 0:0:00:04 / Wed May  1 14:43:52 2019
GPGPU-Sim uArch: Shader 11 finished CTA #5 (2500,0), 1 CTAs running
GPGPU-Sim uArch: Shader 3 finished CTA #3 (2502,0), 0 CTAs running
GPGPU-Sim uArch: Shader 3 empty (release kernel 1 '_Z6KernelP4NodePiPbS2_S1_S2_i').
GPGPU-Sim uArch: Shader 7 finished CTA #3 (2520,0), 0 CTAs running
GPGPU-Sim uArch: Shader 7 empty (release kernel 1 '_Z6KernelP4NodePiPbS2_S1_S2_i').
GPGPU-Sim uArch: Shader 8 finished CTA #4 (2523,0), 0 CTAs running
GPGPU-Sim uArch: Shader 8 empty (release kernel 1 '_Z6KernelP4NodePiPbS2_S1_S2_i').
GPGPU-Sim uArch: Shader 14 finished CTA #3 (2533,0), 1 CTAs running
GPGPU-Sim uArch: Shader 12 finished CTA #2 (2541,0), 1 CTAs running
GPGPU-Sim uArch: Shader 14 finished CTA #4 (2542,0), 0 CTAs running
GPGPU-Sim uArch: Shader 14 empty (release kernel 1 '_Z6KernelP4NodePiPbS2_S1_S2_i').
GPGPU-Sim uArch: Shader 12 finished CTA #3 (2554,0), 0 CTAs running
GPGPU-Sim uArch: Shader 12 empty (release kernel 1 '_Z6KernelP4NodePiPbS2_S1_S2_i').
GPGPU-Sim uArch: Shader 2 finished CTA #1 (2561,0), 2 CTAs running
GPGPU-Sim uArch: Shader 11 finished CTA #1 (2576,0), 0 CTAs running
GPGPU-Sim uArch: Shader 11 empty (release kernel 1 '_Z6KernelP4NodePiPbS2_S1_S2_i').
GPGPU-Sim uArch: Shader 10 finished CTA #2 (2584,0), 3 CTAs running
GPGPU-Sim uArch: Shader 4 finished CTA #3 (2590,0), 3 CTAs running
GPGPU-Sim uArch: Shader 13 finished CTA #4 (2608,0), 1 CTAs running
GPGPU-Sim uArch: Shader 10 finished CTA #5 (2614,0), 2 CTAs running
GPGPU-Sim uArch: Shader 0 finished CTA #0 (2619,0), 0 CTAs running
GPGPU-Sim uArch: Shader 0 empty (release kernel 1 '_Z6KernelP4NodePiPbS2_S1_S2_i').
GPGPU-Sim uArch: Shader 1 finished CTA #4 (2619,0), 1 CTAs running
GPGPU-Sim uArch: Shader 4 finished CTA #4 (2628,0), 2 CTAs running
GPGPU-Sim uArch: Shader 10 finished CTA #3 (2653,0), 1 CTAs running
GPGPU-Sim uArch: Shader 13 finished CTA #5 (2655,0), 0 CTAs running
GPGPU-Sim uArch: Shader 13 empty (release kernel 1 '_Z6KernelP4NodePiPbS2_S1_S2_i').
GPGPU-Sim uArch: Shader 4 finished CTA #5 (2657,0), 1 CTAs running
GPGPU-Sim uArch: Shader 5 finished CTA #4 (2657,0), 1 CTAs running
GPGPU-Sim uArch: Shader 10 finished CTA #4 (2680,0), 0 CTAs running
GPGPU-Sim uArch: Shader 10 empty (release kernel 1 '_Z6KernelP4NodePiPbS2_S1_S2_i').
GPGPU-Sim uArch: Shader 5 finished CTA #5 (2687,0), 0 CTAs running
GPGPU-Sim uArch: Shader 5 empty (release kernel 1 '_Z6KernelP4NodePiPbS2_S1_S2_i').
GPGPU-Sim uArch: Shader 9 finished CTA #4 (2709,0), 2 CTAs running
GPGPU-Sim uArch: Shader 9 finished CTA #5 (2720,0), 1 CTAs running
GPGPU-Sim uArch: Shader 2 finished CTA #2 (2721,0), 1 CTAs running
GPGPU-Sim uArch: Shader 2 finished CTA #3 (2735,0), 0 CTAs running
GPGPU-Sim uArch: Shader 2 empty (release kernel 1 '_Z6KernelP4NodePiPbS2_S1_S2_i').
GPGPU-Sim uArch: Shader 9 finished CTA #0 (2765,0), 0 CTAs running
GPGPU-Sim uArch: Shader 9 empty (release kernel 1 '_Z6KernelP4NodePiPbS2_S1_S2_i').
GPGPU-Sim uArch: Shader 4 finished CTA #0 (2914,0), 0 CTAs running
GPGPU-Sim uArch: Shader 4 empty (release kernel 1 '_Z6KernelP4NodePiPbS2_S1_S2_i').
GPGPU-Sim uArch: Shader 1 finished CTA #0 (6271,0), 0 CTAs running
GPGPU-Sim uArch: Shader 1 empty (release kernel 1 '_Z6KernelP4NodePiPbS2_S1_S2_i').
GPGPU-Sim uArch: GPU detected kernel '_Z6KernelP4NodePiPbS2_S1_S2_i' finished on shader 1.
kernel_name = _Z6KernelP4NodePiPbS2_S1_S2_i 
kernel_launch_uid = 1 
gpu_sim_cycle = 6272
gpu_sim_insn = 917736
gpu_ipc =     146.3227
gpu_tot_sim_cycle = 6272
gpu_tot_sim_insn = 917736
gpu_tot_ipc =     146.3227
gpu_tot_issued_cta = 0
gpu_stall_dramfull = 291
gpu_stall_icnt2sh    = 160
gpu_total_sim_rate=229434

========= Core cache stats =========
L1I_cache:
	L1I_total_cache_accesses = 19509
	L1I_total_cache_misses = 950
	L1I_total_cache_miss_rate = 0.0487
	L1I_total_cache_pending_hits = 0
	L1I_total_cache_reservation_fails = 5849
L1D_cache:
	L1D_cache_core[0]: Access = 152, Miss = 38, Miss_rate = 0.250, Pending_hits = 113, Reservation_fails = 521
	L1D_cache_core[1]: Access = 196, Miss = 69, Miss_rate = 0.352, Pending_hits = 97, Reservation_fails = 381
	L1D_cache_core[2]: Access = 128, Miss = 35, Miss_rate = 0.273, Pending_hits = 91, Reservation_fails = 1202
	L1D_cache_core[3]: Access = 144, Miss = 36, Miss_rate = 0.250, Pending_hits = 108, Reservation_fails = 170
	L1D_cache_core[4]: Access = 152, Miss = 38, Miss_rate = 0.250, Pending_hits = 114, Reservation_fails = 879
	L1D_cache_core[5]: Access = 96, Miss = 29, Miss_rate = 0.302, Pending_hits = 65, Reservation_fails = 1167
	L1D_cache_core[6]: Access = 144, Miss = 36, Miss_rate = 0.250, Pending_hits = 108, Reservation_fails = 0
	L1D_cache_core[7]: Access = 128, Miss = 34, Miss_rate = 0.266, Pending_hits = 94, Reservation_fails = 862
	L1D_cache_core[8]: Access = 144, Miss = 36, Miss_rate = 0.250, Pending_hits = 108, Reservation_fails = 154
	L1D_cache_core[9]: Access = 152, Miss = 38, Miss_rate = 0.250, Pending_hits = 114, Reservation_fails = 442
	L1D_cache_core[10]: Access = 144, Miss = 36, Miss_rate = 0.250, Pending_hits = 108, Reservation_fails = 164
	L1D_cache_core[11]: Access = 152, Miss = 38, Miss_rate = 0.250, Pending_hits = 111, Reservation_fails = 280
	L1D_cache_core[12]: Access = 144, Miss = 36, Miss_rate = 0.250, Pending_hits = 108, Reservation_fails = 0
	L1D_cache_core[13]: Access = 96, Miss = 29, Miss_rate = 0.302, Pending_hits = 65, Reservation_fails = 1076
	L1D_cache_core[14]: Access = 144, Miss = 36, Miss_rate = 0.250, Pending_hits = 108, Reservation_fails = 0
	L1D_total_cache_accesses = 2116
	L1D_total_cache_misses = 564
	L1D_total_cache_miss_rate = 0.2665
	L1D_total_cache_pending_hits = 1512
	L1D_total_cache_reservation_fails = 7298
	L1D_cache_data_port_util = 0.001
	L1D_cache_fill_port_util = 0.013
L1C_cache:
	L1C_total_cache_accesses = 4115
	L1C_total_cache_misses = 480
	L1C_total_cache_miss_rate = 0.1166
	L1C_total_cache_pending_hits = 0
	L1C_total_cache_reservation_fails = 3411
L1T_cache:
	L1T_total_cache_accesses = 0
	L1T_total_cache_misses = 0
	L1T_total_cache_pending_hits = 0
	L1T_total_cache_reservation_fails = 0

Total_core_cache_stats:
	Total_core_cache_stats_breakdown[GLOBAL_ACC_R][HIT] = 39
	Total_core_cache_stats_breakdown[GLOBAL_ACC_R][HIT_RESERVED] = 1512
	Total_core_cache_stats_breakdown[GLOBAL_ACC_R][MISS] = 539
	Total_core_cache_stats_breakdown[GLOBAL_ACC_R][RESERVATION_FAIL] = 7298
	Total_core_cache_stats_breakdown[CONST_ACC_R][HIT] = 3635
	Total_core_cache_stats_breakdown[CONST_ACC_R][MISS] = 480
	Total_core_cache_stats_breakdown[CONST_ACC_R][RESERVATION_FAIL] = 3411
	Total_core_cache_stats_breakdown[GLOBAL_ACC_W][HIT] = 1
	Total_core_cache_stats_breakdown[GLOBAL_ACC_W][MISS] = 25
	Total_core_cache_stats_breakdown[INST_ACC_R][HIT] = 18559
	Total_core_cache_stats_breakdown[INST_ACC_R][MISS] = 950
	Total_core_cache_stats_breakdown[INST_ACC_R][RESERVATION_FAIL] = 5849
Shader 0 warp_id issue ditsribution:
warp_id:
0, 1, 2, 3, 4, 5, 6, 7, 8, 9, 10, 11, 12, 13, 14, 15, 16, 17, 18, 19, 20, 21, 22, 23, 24, 25, 26, 27, 28, 29, 30, 31, 32, 33, 34, 35, 36, 37, 38, 39, 40, 41, 42, 43, 44, 45, 46, 47, 
distro:
60, 60, 60, 60, 60, 60, 60, 60, 45, 45, 45, 45, 45, 45, 45, 45, 45, 45, 45, 45, 45, 45, 45, 45, 45, 45, 45, 45, 45, 45, 45, 45, 45, 45, 45, 45, 45, 45, 45, 45, 45, 45, 45, 45, 45, 45, 45, 45, 
gpgpu_n_tot_thrd_icount = 990816
gpgpu_n_tot_w_icount = 30963
gpgpu_n_stall_shd_mem = 10709
gpgpu_n_mem_read_local = 0
gpgpu_n_mem_write_local = 0
gpgpu_n_mem_read_global = 539
gpgpu_n_mem_write_global = 26
gpgpu_n_mem_texture = 0
gpgpu_n_mem_const = 15
gpgpu_n_load_insn  = 65578
gpgpu_n_store_insn = 26
gpgpu_n_shmem_insn = 0
gpgpu_n_tex_insn = 0
gpgpu_n_const_mem_insn = 0
gpgpu_n_param_mem_insn = 131091
gpgpu_n_shmem_bkconflict = 0
gpgpu_n_cache_bkconflict = 0
gpgpu_n_intrawarp_mshr_merge = 0
gpgpu_n_cmem_portconflict = 3411
gpgpu_stall_shd_mem[c_mem][bk_conf] = 3411
gpgpu_stall_shd_mem[c_mem][mshr_rc] = 0
gpgpu_stall_shd_mem[c_mem][icnt_rc] = 0
gpgpu_stall_shd_mem[c_mem][data_port_stall] = 0
gpgpu_stall_shd_mem[t_mem][mshr_rc] = 0
gpgpu_stall_shd_mem[t_mem][icnt_rc] = 0
gpgpu_stall_shd_mem[t_mem][data_port_stall] = 0
gpgpu_stall_shd_mem[s_mem][bk_conf] = 0
gpgpu_stall_shd_mem[gl_mem][bk_conf] = 0
gpgpu_stall_shd_mem[gl_mem][coal_stall] = 7298
gpgpu_stall_shd_mem[gl_mem][data_port_stall] = 0
gpgpu_stall_shd_mem[g_mem_ld][mshr_rc] = 0
gpgpu_stall_shd_mem[g_mem_ld][icnt_rc] = 0
gpgpu_stall_shd_mem[g_mem_ld][wb_icnt_rc] = 0
gpgpu_stall_shd_mem[g_mem_ld][wb_rsrv_fail] = 0
gpgpu_stall_shd_mem[g_mem_st][mshr_rc] = 0
gpgpu_stall_shd_mem[g_mem_st][icnt_rc] = 0
gpgpu_stall_shd_mem[g_mem_st][wb_icnt_rc] = 0
gpgpu_stall_shd_mem[g_mem_st][wb_rsrv_fail] = 0
gpgpu_stall_shd_mem[l_mem_ld][mshr_rc] = 0
gpgpu_stall_shd_mem[l_mem_ld][icnt_rc] = 0
gpgpu_stall_shd_mem[l_mem_ld][wb_icnt_rc] = 0
gpgpu_stall_shd_mem[l_mem_ld][wb_rsrv_fail] = 0
gpgpu_stall_shd_mem[l_mem_st][mshr_rc] = 0
gpgpu_stall_shd_mem[l_mem_st][icnt_rc] = 0
gpgpu_stall_shd_mem[l_mem_ld][wb_icnt_rc] = 0
gpgpu_stall_shd_mem[l_mem_ld][wb_rsrv_fail] = 0
gpu_reg_bank_conflict_stalls = 0
Warp Occupancy Distribution:
Stall:18661	W0_Idle:15898	W0_Scoreboard:20576	W1:243	W2:0	W3:0	W4:0	W5:0	W6:0	W7:0	W8:0	W9:0	W10:0	W11:0	W12:0	W13:0	W14:0	W15:0	W16:0	W17:0	W18:0	W19:0	W20:0	W21:0	W22:0	W23:0	W24:0	W25:0	W26:0	W27:0	W28:0	W29:0	W30:0	W31:0	W32:30720
traffic_breakdown_coretomem[CONST_ACC_R] = 120 {8:15,}
traffic_breakdown_coretomem[GLOBAL_ACC_R] = 4312 {8:539,}
traffic_breakdown_coretomem[GLOBAL_ACC_W] = 1040 {40:26,}
traffic_breakdown_coretomem[INST_ACC_R] = 256 {8:32,}
traffic_breakdown_memtocore[CONST_ACC_R] = 1080 {72:15,}
traffic_breakdown_memtocore[GLOBAL_ACC_R] = 73304 {136:539,}
traffic_breakdown_memtocore[GLOBAL_ACC_W] = 208 {8:26,}
traffic_breakdown_memtocore[INST_ACC_R] = 4352 {136:32,}
maxmrqlatency = 33 
maxdqlatency = 0 
maxmflatency = 304 
averagemflatency = 258 
max_icnt2mem_latency = 36 
max_icnt2sh_latency = 6271 
mrq_lat_table:435 	18 	39 	48 	7 	1 	0 	0 	0 	0 	0 	0 	0 	0 	0 	0 	0 	0 	0 	0 	0 	0 	0 	0 	0 	0 	0 	0 	0 	0 	0 	0 	
dq_lat_table:0 	0 	0 	0 	0 	0 	0 	0 	0 	0 	0 	0 	0 	0 	0 	0 	0 	0 	0 	0 	0 	0 	0 	0 	0 	0 	0 	0 	0 	0 	0 	0 	
mf_lat_table:0 	0 	0 	0 	0 	0 	0 	45 	535 	0 	0 	0 	0 	0 	0 	0 	0 	0 	0 	0 	0 	0 	0 	0 	0 	0 	0 	0 	0 	0 	0 	0 	
icnt2mem_lat_table:0 	0 	0 	601 	8 	3 	0 	0 	0 	0 	0 	0 	0 	0 	0 	0 	0 	0 	0 	0 	0 	0 	0 	0 	
icnt2sh_lat_table:0 	0 	0 	430 	121 	3 	0 	0 	0 	0 	2 	6 	18 	0 	0 	0 	0 	0 	0 	0 	0 	0 	0 	0 	
mf_lat_pw_table:0 	0 	0 	0 	0 	0 	0 	6 	5 	0 	0 	0 	0 	0 	0 	0 	0 	0 	0 	0 	0 	0 	0 	0 	0 	0 	0 	0 	0 	0 	0 	0 	
maximum concurrent accesses to same row:
dram[0]:         1         0         0         0         0         0         0         0         0         0         0         0         0         0         0         0 
dram[1]:         0         0         0         0         0         0         0         0         0         0         0         0         0         0         0         0 
dram[2]:         0         0         0         0         0         0         0         0         0         0         0         0         0         0         0         0 
dram[3]:         0         0         0         0         0         0         0         0         0         0         0         0         0         0         0         0 
dram[4]:         0         0         0         0         0         0         0         0         0         0        22        22         0         0         0         0 
dram[5]:         0         0         0         0         0         0         0         0         0         0         0         0         0         0         0         0 
maximum service time to same row:
dram[0]:      1907         0      6253         0         0         0         0         0         0         0       954       915      1769      1784         0         0 
dram[1]:      1197         0         0         0         0         0         0         0         0         0       959       916      1782      1794         0      4313 
dram[2]:         0         0         0      3435         0      1632         0         0         0      4647       947       925      1741      1569         0         0 
dram[3]:         0         0         0      5446         0      5047         0         0         0         0       963       938      1763      1778         0         0 
dram[4]:         0      4240         0         0         0      5844         0         0         0         0      1587      2898      1804      1810      3506         0 
dram[5]:         0         0         0         0         0         0         0         0         0         0       919       944      1754      1785      5918         0 
average row accesses per activate:
dram[0]:  1.000000      -nan  2.000000      -nan      -nan      -nan      -nan      -nan      -nan      -nan 20.000000 22.000000 22.000000 22.000000      -nan      -nan 
dram[1]:  2.000000      -nan      -nan      -nan      -nan      -nan      -nan      -nan      -nan      -nan 20.000000 22.000000 24.000000 22.000000      -nan  3.000000 
dram[2]:      -nan      -nan      -nan  2.000000      -nan  1.000000      -nan      -nan      -nan  2.000000 20.000000 22.000000 22.000000 22.000000      -nan      -nan 
dram[3]:      -nan      -nan      -nan  2.000000      -nan  2.000000      -nan      -nan      -nan      -nan 20.000000 22.000000 22.000000 20.000000      -nan      -nan 
dram[4]:      -nan  2.000000      -nan      -nan      -nan  2.000000      -nan      -nan      -nan      -nan  8.333333 12.000000 22.000000 20.000000  2.000000      -nan 
dram[5]:      -nan      -nan      -nan      -nan      -nan      -nan      -nan      -nan      -nan      -nan 22.000000 22.000000 22.000000 20.000000  1.000000      -nan 
average row locality = 548/43 = 12.744186
number of total memory accesses made:
dram[0]:         0         0         0         0         0         0         0         0         0         0         0         0         0         0         0         0 
dram[1]:         0         0         0         0         0         0         0         0         0         0         0         0         0         0         0         0 
dram[2]:         0         0         0         0         0         0         0         0         0         0         0         0         0         0         0         0 
dram[3]:         0         0         0         0         0         0         0         0         0         0         0         0         0         0         0         0 
dram[4]:         0         0         0         0         0         0         0         0         0         0         0         0         0         0         0         0 
dram[5]:         0         0         0         0         0         0         0         0         0         0         0         0         0         0         0         0 
total accesses: 0
min_bank_accesses = 0!
min_chip_accesses = 0!
number of total read accesses:
dram[0]:         4         0         1         0         0         0         0         0         0         0        20        22        22        22         0         0 
dram[1]:         2         0         0         0         0         0         0         0         0         0        20        22        24        22         0         3 
dram[2]:         0         0         0         1         0         1         0         0         0         1        20        22        22        21         0         0 
dram[3]:         0         0         0         1         0         1         0         0         0         0        20        22        22        20         0         0 
dram[4]:         0         1         0         0         0         1         0         0         0         0        24        23        22        20         2         0 
dram[5]:         0         0         0         0         0         0         0         0         0         0        22        22        22        20         1         0 
total reads: 538
min_bank_accesses = 0!
chip skew: 93/86 = 1.08
number of total write accesses:
dram[0]:         0         0         1         0         0         0         0         0         0         0         0         0         0         0         0         0 
dram[1]:         0         0         0         0         0         0         0         0         0         0         0         0         0         0         0         0 
dram[2]:         0         0         0         1         0         0         0         0         0         1         0         0         0         1         0         0 
dram[3]:         0         0         0         1         0         1         0         0         0         0         0         0         0         0         0         0 
dram[4]:         0         1         0         0         0         1         0         0         0         0         1         1         0         0         0         0 
dram[5]:         0         0         0         0         0         0         0         0         0         0         0         0         0         0         0         0 
total reads: 10
min_bank_accesses = 0!
min_chip_accesses = 0!
average mf latency per bank:
dram[0]:       1055    none         126    none      none      none      none      none      none      none         267       267       273       262    none      none  
dram[1]:          0    none      none      none      none      none      none      none      none      none         294       276       261       266    none         262
dram[2]:     none      none      none         125    none         411    none      none      none         126       261       288       260       249    none      none  
dram[3]:     none      none      none         126    none         126    none      none      none      none         273       282       274       264    none      none  
dram[4]:     none         126    none      none      none         126    none      none      none      none         310       263       262       264       263    none  
dram[5]:     none      none      none      none      none      none      none      none      none      none         291       268       261       262       268    none  
maximum mf latency per bank:
dram[0]:        283         0       252         0         0         0         0         0         0         0       283       283       270       287         0         0
dram[1]:          0         0         0         0         0         0         0         0         0         0       280       287       273       304         0       268
dram[2]:          0         0         0       251         0       268         0         0         0       252       273       275       270       270         0         0
dram[3]:          0         0         0       252         0       252         0         0         0         0       277       301       272       277         0         0
dram[4]:          0       252         0         0         0       252         0         0         0         0       286       292       275       283       268         0
dram[5]:          0         0         0         0         0         0         0         0         0         0       289       284       286       277       268         0

Number of Memory Banks Accessed per Memory Operation per Warp (from 0):
0	0	0	0	0	0	0	0	0	0	0	0	0	0	0	0	0	0	0	0	0	0	0	0	0	0	0	0	0	0	0	0	0	0	0	0	0	0	0	0	0	0	0	0	0	0	0	0	0	0	0	0	0	0	0	0	0	0	0	0	0	0	0	0	0	0	0	0	0	0	0	0	0	0	0	0	0	0	0	0	0	0	0	0	0	0	0	0	0	0	0	0	0	0	0	0	
Average # of Memory Banks Accessed per Memory Operation per Warp=-nan

position of mrq chosen
0	0	0	0	0	0	0	0	0	0	0	0	0	0	0	0	

average position of mrq chosen = -nan
Memory Partition 0: 
Cache L2_bank_000:
MSHR contents
MSHR: tag=0x80234400, atomic=0 1 entries : 0x7f187c10c7a0 :  mf: uid= 42305, sid01:w00, part=0, addr=0x80234440, load , size=32, unknown  status = IN_PARTITION_DRAM (6269), 

Cache L2_bank_001:
MSHR contents

In Dram Latency Queue (total = 0): 
DRAM[0]: 16 bks, busW=4 BL=8 CL=12, tRRD=2 tCCD=6, tRCD=12 tRAS=28 tRP=12 tRC=40
n_cmd=8278 n_nop=8083 n_act=9 n_pre=3 n_req=92 n_rd=182 n_write=1 bw_util=0.04421
n_activity=1092 dram_eff=0.3352
bk0: 8a 8177i bk1: 0a 8275i bk2: 2a 8255i bk3: 0a 8276i bk4: 0a 8277i bk5: 0a 8277i bk6: 0a 8280i bk7: 0a 8280i bk8: 0a 8280i bk9: 0a 8280i bk10: 40a 8167i bk11: 44a 8124i bk12: 44a 8169i bk13: 44a 8153i bk14: 0a 8276i bk15: 0a 8276i 
dram_util_bins: 0 0 0 0 0 0 0 0 0 0
dram_eff_bins: 0 0 0 0 0 0 0 0 0 0
mrqq: max=3 avg=0.0204156
Memory Partition 1: 
Cache L2_bank_002:
MSHR contents

Cache L2_bank_003:
MSHR contents

In Dram Latency Queue (total = 0): 
DRAM[1]: 16 bks, busW=4 BL=8 CL=12, tRRD=2 tCCD=6, tRCD=12 tRAS=28 tRP=12 tRC=40
n_cmd=8278 n_nop=8086 n_act=6 n_pre=0 n_req=93 n_rd=186 n_write=0 bw_util=0.04494
n_activity=973 dram_eff=0.3823
bk0: 4a 8256i bk1: 0a 8277i bk2: 0a 8277i bk3: 0a 8278i bk4: 0a 8278i bk5: 0a 8278i bk6: 0a 8278i bk7: 0a 8279i bk8: 0a 8280i bk9: 0a 8280i bk10: 40a 8160i bk11: 44a 8080i bk12: 48a 8151i bk13: 44a 8125i bk14: 0a 8275i bk15: 6a 8253i 
dram_util_bins: 0 0 0 0 0 0 0 0 0 0
dram_eff_bins: 0 0 0 0 0 0 0 0 0 0
mrqq: max=4 avg=0.0393815
Memory Partition 2: 
Cache L2_bank_004:
MSHR contents

Cache L2_bank_005:
MSHR contents

In Dram Latency Queue (total = 0): 
DRAM[2]: 16 bks, busW=4 BL=8 CL=12, tRRD=2 tCCD=6, tRCD=12 tRAS=28 tRP=12 tRC=40
n_cmd=8278 n_nop=8092 n_act=7 n_pre=0 n_req=91 n_rd=176 n_write=3 bw_util=0.04325
n_activity=1078 dram_eff=0.3321
bk0: 0a 8276i bk1: 0a 8278i bk2: 0a 8279i bk3: 2a 8256i bk4: 0a 8277i bk5: 2a 8260i bk6: 0a 8279i bk7: 0a 8280i bk8: 0a 8281i bk9: 2a 8259i bk10: 40a 8179i bk11: 44a 8150i bk12: 44a 8156i bk13: 42a 8143i bk14: 0a 8275i bk15: 0a 8275i 
dram_util_bins: 0 0 0 0 0 0 0 0 0 0
dram_eff_bins: 0 0 0 0 0 0 0 0 0 0
mrqq: max=1 avg=0.00857695
Memory Partition 3: 
Cache L2_bank_006:
MSHR contents

Cache L2_bank_007:
MSHR contents

In Dram Latency Queue (total = 0): 
DRAM[3]: 16 bks, busW=4 BL=8 CL=12, tRRD=2 tCCD=6, tRCD=12 tRAS=28 tRP=12 tRC=40
n_cmd=8278 n_nop=8098 n_act=6 n_pre=0 n_req=88 n_rd=172 n_write=2 bw_util=0.04204
n_activity=879 dram_eff=0.3959
bk0: 0a 8278i bk1: 0a 8280i bk2: 0a 8280i bk3: 2a 8257i bk4: 0a 8278i bk5: 2a 8255i bk6: 0a 8277i bk7: 0a 8278i bk8: 0a 8279i bk9: 0a 8279i bk10: 40a 8163i bk11: 44a 8083i bk12: 44a 8158i bk13: 40a 8153i bk14: 0a 8276i bk15: 0a 8276i 
dram_util_bins: 0 0 0 0 0 0 0 0 0 0
dram_eff_bins: 0 0 0 0 0 0 0 0 0 0
mrqq: max=3 avg=0.0275429
Memory Partition 4: 
Cache L2_bank_008:
MSHR contents

Cache L2_bank_009:
MSHR contents

In Dram Latency Queue (total = 0): 
DRAM[4]: 16 bks, busW=4 BL=8 CL=12, tRRD=2 tCCD=6, tRCD=12 tRAS=28 tRP=12 tRC=40
n_cmd=8278 n_nop=8075 n_act=10 n_pre=3 n_req=97 n_rd=186 n_write=4 bw_util=0.0459
n_activity=1099 dram_eff=0.3458
bk0: 0a 8274i bk1: 2a 8254i bk2: 0a 8277i bk3: 0a 8277i bk4: 0a 8278i bk5: 2a 8258i bk6: 0a 8280i bk7: 0a 8281i bk8: 0a 8284i bk9: 0a 8284i bk10: 48a 8088i bk11: 46a 8073i bk12: 44a 8152i bk13: 40a 8147i bk14: 4a 8254i bk15: 0a 8273i 
dram_util_bins: 0 0 0 0 0 0 0 0 0 0
dram_eff_bins: 0 0 0 0 0 0 0 0 0 0
mrqq: max=3 avg=0.0293549
Memory Partition 5: 
Cache L2_bank_010:
MSHR contents

Cache L2_bank_011:
MSHR contents

In Dram Latency Queue (total = 0): 
DRAM[5]: 16 bks, busW=4 BL=8 CL=12, tRRD=2 tCCD=6, tRCD=12 tRAS=28 tRP=12 tRC=40
n_cmd=8278 n_nop=8099 n_act=5 n_pre=0 n_req=87 n_rd=174 n_write=0 bw_util=0.04204
n_activity=886 dram_eff=0.3928
bk0: 0a 8275i bk1: 0a 8277i bk2: 0a 8278i bk3: 0a 8278i bk4: 0a 8278i bk5: 0a 8279i bk6: 0a 8279i bk7: 0a 8279i bk8: 0a 8279i bk9: 0a 8279i bk10: 44a 8153i bk11: 44a 8095i bk12: 44a 8142i bk13: 40a 8139i bk14: 2a 8260i bk15: 0a 8275i 
dram_util_bins: 0 0 0 0 0 0 0 0 0 0
dram_eff_bins: 0 0 0 0 0 0 0 0 0 0
mrqq: max=3 avg=0.0142547

========= L2 cache stats =========
L2_cache_bank[0]: Access = 77, Miss = 47, Miss_rate = 0.610, Pending_hits = 6, Reservation_fails = 227
L2_cache_bank[1]: Access = 44, Miss = 44, Miss_rate = 1.000, Pending_hits = 0, Reservation_fails = 0
L2_cache_bank[2]: Access = 64, Miss = 46, Miss_rate = 0.719, Pending_hits = 3, Reservation_fails = 115
L2_cache_bank[3]: Access = 48, Miss = 47, Miss_rate = 0.979, Pending_hits = 0, Reservation_fails = 0
L2_cache_bank[4]: Access = 42, Miss = 42, Miss_rate = 1.000, Pending_hits = 0, Reservation_fails = 0
L2_cache_bank[5]: Access = 51, Miss = 46, Miss_rate = 0.902, Pending_hits = 0, Reservation_fails = 0
L2_cache_bank[6]: Access = 45, Miss = 42, Miss_rate = 0.933, Pending_hits = 0, Reservation_fails = 0
L2_cache_bank[7]: Access = 46, Miss = 44, Miss_rate = 0.957, Pending_hits = 0, Reservation_fails = 0
L2_cache_bank[8]: Access = 58, Miss = 48, Miss_rate = 0.828, Pending_hits = 0, Reservation_fails = 0
L2_cache_bank[9]: Access = 46, Miss = 45, Miss_rate = 0.978, Pending_hits = 0, Reservation_fails = 0
L2_cache_bank[10]: Access = 49, Miss = 45, Miss_rate = 0.918, Pending_hits = 0, Reservation_fails = 0
L2_cache_bank[11]: Access = 42, Miss = 42, Miss_rate = 1.000, Pending_hits = 0, Reservation_fails = 0
L2_total_cache_accesses = 612
L2_total_cache_misses = 538
L2_total_cache_miss_rate = 0.8791
L2_total_cache_pending_hits = 9
L2_total_cache_reservation_fails = 342
L2_total_cache_breakdown:
	L2_cache_stats_breakdown[GLOBAL_ACC_R][HIT] = 16
	L2_cache_stats_breakdown[GLOBAL_ACC_R][MISS] = 523
	L2_cache_stats_breakdown[CONST_ACC_R][HIT] = 11
	L2_cache_stats_breakdown[CONST_ACC_R][HIT_RESERVED] = 3
	L2_cache_stats_breakdown[CONST_ACC_R][MISS] = 1
	L2_cache_stats_breakdown[CONST_ACC_R][RESERVATION_FAIL] = 111
	L2_cache_stats_breakdown[GLOBAL_ACC_W][HIT] = 16
	L2_cache_stats_breakdown[GLOBAL_ACC_W][MISS] = 10
	L2_cache_stats_breakdown[INST_ACC_R][HIT] = 22
	L2_cache_stats_breakdown[INST_ACC_R][HIT_RESERVED] = 6
	L2_cache_stats_breakdown[INST_ACC_R][MISS] = 4
	L2_cache_stats_breakdown[INST_ACC_R][RESERVATION_FAIL] = 231
L2_cache_data_port_util = 0.003
L2_cache_fill_port_util = 0.029

icnt_total_pkts_mem_to_simt=2926
icnt_total_pkts_simt_to_mem=638
LD_mem_lat_dist  0 0 0 0 0 0 0 0 0 0 0 0 0 0 0 0 0 0 0 0 0 0 0 0 0 0 0
ST_mem_lat_dist  0 0 0 0 0 0 0 0 0 0 0 0 0 0 0 0 0 0 0 0 0 0 0 0 0 0 0
----------------------------Interconnect-DETAILS--------------------------------
Class 0:
Packet latency average = 9.43709
	minimum = 6
	maximum = 35
Network latency average = 9.0719
	minimum = 6
	maximum = 34
Slowest packet = 14
Flit latency average = 7.56678
	minimum = 6
	maximum = 34
Slowest flit = 14
Fragmentation average = 0
	minimum = 0
	maximum = 0
Injected packet rate average = 0.00722789
	minimum = 0.00510204 (at node 5)
	maximum = 0.0122768 (at node 15)
Accepted packet rate average = 0.00722789
	minimum = 0.00510204 (at node 5)
	maximum = 0.0122768 (at node 15)
Injected flit rate average = 0.0210459
	minimum = 0.00510204 (at node 5)
	maximum = 0.0546875 (at node 15)
Accepted flit rate average= 0.0210459
	minimum = 0.00669643 (at node 19)
	maximum = 0.042889 (at node 1)
Injected packet length average = 2.91176
Accepted packet length average = 2.91176
Total in-flight flits = 0 (0 measured)
====== Overall Traffic Statistics ======
====== Traffic class 0 ======
Packet latency average = 9.43709 (1 samples)
	minimum = 6 (1 samples)
	maximum = 35 (1 samples)
Network latency average = 9.0719 (1 samples)
	minimum = 6 (1 samples)
	maximum = 34 (1 samples)
Flit latency average = 7.56678 (1 samples)
	minimum = 6 (1 samples)
	maximum = 34 (1 samples)
Fragmentation average = 0 (1 samples)
	minimum = 0 (1 samples)
	maximum = 0 (1 samples)
Injected packet rate average = 0.00722789 (1 samples)
	minimum = 0.00510204 (1 samples)
	maximum = 0.0122768 (1 samples)
Accepted packet rate average = 0.00722789 (1 samples)
	minimum = 0.00510204 (1 samples)
	maximum = 0.0122768 (1 samples)
Injected flit rate average = 0.0210459 (1 samples)
	minimum = 0.00510204 (1 samples)
	maximum = 0.0546875 (1 samples)
Accepted flit rate average = 0.0210459 (1 samples)
	minimum = 0.00669643 (1 samples)
	maximum = 0.042889 (1 samples)
Injected packet size average = 2.91176 (1 samples)
Accepted packet size average = 2.91176 (1 samples)
Hops average = 1 (1 samples)
----------------------------END-of-Interconnect-DETAILS-------------------------


gpgpu_simulation_time = 0 days, 0 hrs, 0 min, 4 sec (4 sec)
[...]
traffic_breakdown_coretomem[CONST_ACC_R] = 120 {8:15,}
traffic_breakdown_coretomem[GLOBAL_ACC_R] = 5652712 {8:706589,}
traffic_breakdown_coretomem[GLOBAL_ACC_W] = 16945008 {40:422826,72:87,136:189,}
traffic_breakdown_coretomem[INST_ACC_R] = 480 {8:60,}
traffic_breakdown_memtocore[CONST_ACC_R] = 1080 {72:15,}
traffic_breakdown_memtocore[GLOBAL_ACC_R] = 96096104 {136:706589,}
traffic_breakdown_memtocore[GLOBAL_ACC_W] = 3384816 {8:423102,}
traffic_breakdown_memtocore[INST_ACC_R] = 8160 {136:60,}
maxmrqlatency = 155 
maxdqlatency = 0 
maxmflatency = 443 
averagemflatency = 174 
max_icnt2mem_latency = 89 
max_icnt2sh_latency = 1419126 
mrq_lat_table:38231 	5179 	551 	2019 	4902 	223 	28 	2 	0 	0 	0 	0 	0 	0 	0 	0 	0 	0 	0 	0 	0 	0 	0 	0 	0 	0 	0 	0 	0 	0 	0 	0 	
dq_lat_table:0 	0 	0 	0 	0 	0 	0 	0 	0 	0 	0 	0 	0 	0 	0 	0 	0 	0 	0 	0 	0 	0 	0 	0 	0 	0 	0 	0 	0 	0 	0 	0 	
mf_lat_table:0 	0 	0 	0 	0 	0 	0 	1084899 	44807 	0 	0 	0 	0 	0 	0 	0 	0 	0 	0 	0 	0 	0 	0 	0 	0 	0 	0 	0 	0 	0 	0 	0 	
icnt2mem_lat_table:0 	0 	0 	596473 	351940 	177976 	3377 	0 	0 	0 	0 	0 	0 	0 	0 	0 	0 	0 	0 	0 	0 	0 	0 	0 	
icnt2sh_lat_table:0 	0 	0 	186627 	303767 	206247 	9962 	1 	0 	0 	2 	6 	37 	532 	3198 	10713 	15483 	50475 	119985 	180680 	41991 	0 	0 	0 	
mf_lat_pw_table:0 	0 	0 	0 	0 	0 	0 	2839 	6 	0 	0 	0 	0 	0 	0 	0 	0 	0 	0 	0 	0 	0 	0 	0 	0 	0 	0 	0 	0 	0 	0 	0 	
maximum concurrent accesses to same row:
dram[0]:        32        33        21        23        29        30        30        30        33        29        29        26        32        32        33        32 
dram[1]:        38        31        34        28        22        20        32        32        41        30        24        29        33        33        40        39 
dram[2]:        30        19        36        32        24        27        32        32        36        20        20        22        32        32        34        37 
dram[3]:        30        32        31        28        30        23        32        32        28        28        20        28        34        32        32        32 
dram[4]:        32        32        31        31        24        32        28        28        32        33        22        22        35        32        32        32 
dram[5]:        27        28        32        30        32        30        32        32        24        29        30        22        32        32        32        32 
maximum service time to same row:
dram[0]:    132812    120771    122806    139385    195235    148919    122425    113709    151737    126099     87815    103762    147774    158685    157226    158837 
dram[1]:    151173    130245    123950    133502    195130    146915    116111    102750    149446    189098    185551    187318    212589    127876    165097    157709 
dram[2]:    117288    103287    127694    122985    191029    142663    144468    138307    130028    126649    162206    165578    148406    133530    200607    255250 
dram[3]:    146188    157427    161747    185345    116501    184478    164079    178256    110460    123604    129300    291163    226169    193317    174672    187284 
dram[4]:    125899    120712    132377    169700    147554    212966    148812    152700    137765    105504    164297    163012    192365    147658    170352    157225 
dram[5]:    137416    138127    181454    185350    203238    154381    123750    141029    158891    147616    147111    158086    208180    209255    215085    203601 
average row accesses per activate:
dram[0]:  3.710526  3.417143  3.265432  3.337278  4.021739  3.629371  3.856250  3.934640  3.945455  3.651163  3.005848  3.222930  4.576087  4.415842  7.107143  5.898551 
dram[1]:  3.954545  3.993464  3.308140  3.509434  3.660000  3.438710  3.598802  3.192894  3.265701  3.210526  4.045455  3.695652  4.326530  4.275510  6.164179  7.214286 
dram[2]:  3.303867  3.108808  3.255682  3.820690  3.788732  3.361446  3.880503  4.570370  3.028302  3.272727  3.427673  3.131737  4.238095  4.186275  6.564516  8.148936 
dram[3]:  3.481250  3.690789  3.754967  3.836879  4.000000  3.962406  3.986395  3.871622  4.065790  3.614035  2.940217  3.028249  5.047059  4.133333  5.549296  5.153846 
dram[4]:  4.428571  4.444445  3.807947  3.816327  3.605263  3.811594  4.112676  3.846667  3.589888  3.556818  3.593103  3.702128  4.271845  5.060241  6.193548  7.074074 
dram[5]:  3.930556  3.503226  3.203593  3.335294  4.242188  4.173228  4.554688  4.417911  3.402116  3.616667  3.356688  3.072222  4.698925  4.775281  6.295082  6.655172 
average row locality = 51135/13296 = 3.845893
number of total memory accesses made:
dram[0]:         0         0         0         0         0         0         0         0         0         0         0         0         0         0         0         0 
dram[1]:         0         0         0         0         0         0         0         0         0         0         0         0         0         0         0         0 
dram[2]:         0         0         0         0         0         0         0         0         0         0         0         0         0         0         0         0 
dram[3]:         0         0         0         0         0         0         0         0         0         0         0         0         0         0         0         0 
dram[4]:         0         0         0         0         0         0         0         0         0         0         0         0         0         0         0         0 
dram[5]:         0         0         0         0         0         0         0         0         0         0         0         0         0         0         0         0 
total accesses: 0
min_bank_accesses = 0!
min_chip_accesses = 0!
number of total read accesses:
dram[0]:       436       447       428       452       450       436       514       493       511       506       454       443       401       421       398       407 
dram[1]:       454       458       440       438       454       444       498       532       535       495       459       444       404       401       413       404 
dram[2]:       460       459       451       440       440       461       509       513       513       523       469       456       430       408       407       383 
dram[3]:       431       426       444       433       423       438       489       485       498       505       465       465       405       416       394       402 
dram[4]:       419       434       440       436       452       432       487       480       512       505       455       454       417       400       384       382 
dram[5]:       440       428       421       442       443       440       482       487       520       522       464       478       412       403       384       386 
total reads: 43152
bank skew: 535/382 = 1.40
chip skew: 7322/7089 = 1.03
number of total write accesses:
dram[0]:       128       151       101       112       105        83       103       109       140       122        60        63        20        25         0         0 
dram[1]:       155       153       129       120        95        89       103        97       141       115        75        66        20        18         0         0 
dram[2]:       138       141       122       114        98        97       108       104       129       125        76        67        15        19         0         0 
dram[3]:       126       135       123       108        97        89        97        88       120       113        76        71        24        18         0         0 
dram[4]:       139       126       135       125        96        94        97        97       127       121        66        68        23        20         0         0 
dram[5]:       126       115       114       125       100        90       101       105       123       129        63        75        25        22         0         0 
total reads: 7983
min_bank_accesses = 0!
chip skew: 1376/1285 = 1.07
average mf latency per bank:
dram[0]:       1904      1812      2204      2079      2097      2172      1888      1939      1649      1762      4123      4339      7550      7165     11814     11671
dram[1]:       1690      1777      2021      2110      2138      2189      2000      1954      1677      1805      3921      4338      7344      7545     11389     11767
dram[2]:       1845      1793      2010      2114      2140      2104      1898      1883      1710      1740      3811      4268      7052      7715     11469     12282
dram[3]:       1934      1816      2028      2164      2185      2165      2026      2030      1796      1776      3931      4142      7362      7506     12004     11812
dram[4]:       1879      1936      2045      2098      2235      2271      2102      2000      1839      1779     17471      4267      7470      7849     12656     12422
dram[5]:       1878      1997      2113      2030      2122      2150      1997      1950      1740      1734      4134      4042      7304      7770     12255     12257
maximum mf latency per bank:
dram[0]:        362       387       372       372       358       369       368       425       366       389       391       412       373       391       362       365
dram[1]:        364       382       415       419       396       363       414       376       405       403       356       389       370       388       364       369
dram[2]:        386       384       388       416       355       363       416       416       412       386       387       386       374       378       354       358
dram[3]:        374       375       357       375       385       394       394       375       358       375       373       375       369       358       371       385
dram[4]:        377       376       380       359       389       443       417       405       380       386       369       370       377       407       401       362
dram[5]:        389       394       372       387       397       392       380       398       374       421       374       382       403       374       397       390

Number of Memory Banks Accessed per Memory Operation per Warp (from 0):
0	0	0	0	0	0	0	0	0	0	0	0	0	0	0	0	0	0	0	0	0	0	0	0	0	0	0	0	0	0	0	0	0	0	0	0	0	0	0	0	0	0	0	0	0	0	0	0	0	0	0	0	0	0	0	0	0	0	0	0	0	0	0	0	0	0	0	0	0	0	0	0	0	0	0	0	0	0	0	0	0	0	0	0	0	0	0	0	0	0	0	0	0	0	0	0	
Average # of Memory Banks Accessed per Memory Operation per Warp=-nan

position of mrq chosen
0	0	0	0	0	0	0	0	0	0	0	0	0	0	0	0	

average position of mrq chosen = -nan
Memory Partition 0: 
Cache L2_bank_000:
MSHR contents

Cache L2_bank_001:
MSHR contents

In Dram Latency Queue (total = 0): 
DRAM[0]: 16 bks, busW=4 BL=8 CL=12, tRRD=2 tCCD=6, tRCD=12 tRAS=28 tRP=12 tRC=40
n_cmd=1875751 n_nop=1854952 n_act=2235 n_pre=2219 n_req=8519 n_rd=14394 n_write=1951 bw_util=0.01743
n_activity=156228 dram_eff=0.2092
bk0: 872a 1868766i bk1: 894a 1867821i bk2: 856a 1868554i bk3: 904a 1868240i bk4: 900a 1869062i bk5: 872a 1869325i bk6: 1028a 1868290i bk7: 986a 1868246i bk8: 1022a 1867673i bk9: 1012a 1867681i bk10: 908a 1868622i bk11: 886a 1868934i bk12: 802a 1871104i bk13: 842a 1870785i bk14: 796a 1872361i bk15: 814a 1872133i 
dram_util_bins: 0 0 0 0 0 0 0 0 0 0
dram_eff_bins: 0 0 0 0 0 0 0 0 0 0
mrqq: max=9 avg=0.0162959
Memory Partition 1: 
Cache L2_bank_002:
MSHR contents

Cache L2_bank_003:
MSHR contents

In Dram Latency Queue (total = 0): 
DRAM[1]: 16 bks, busW=4 BL=8 CL=12, tRRD=2 tCCD=6, tRCD=12 tRAS=28 tRP=12 tRC=40
n_cmd=1875751 n_nop=1854623 n_act=2293 n_pre=2277 n_req=8649 n_rd=14546 n_write=2012 bw_util=0.01765
n_activity=158809 dram_eff=0.2085
bk0: 908a 1868263i bk1: 916a 1868408i bk2: 880a 1868074i bk3: 876a 1868577i bk4: 908a 1868923i bk5: 888a 1868958i bk6: 996a 1868074i bk7: 1064a 1867133i bk8: 1070a 1866605i bk9: 990a 1867303i bk10: 918a 1869269i bk11: 888a 1869228i bk12: 808a 1870809i bk13: 802a 1870912i bk14: 826a 1872012i bk15: 808a 1872548i 
dram_util_bins: 0 0 0 0 0 0 0 0 0 0
dram_eff_bins: 0 0 0 0 0 0 0 0 0 0
mrqq: max=6 avg=0.0178947
Memory Partition 2: 
Cache L2_bank_004:
MSHR contents

Cache L2_bank_005:
MSHR contents

In Dram Latency Queue (total = 0): 
DRAM[2]: 16 bks, busW=4 BL=8 CL=12, tRRD=2 tCCD=6, tRCD=12 tRAS=28 tRP=12 tRC=40
n_cmd=1875751 n_nop=1854425 n_act=2349 n_pre=2333 n_req=8675 n_rd=14644 n_write=2000 bw_util=0.01775
n_activity=159085 dram_eff=0.2092
bk0: 920a 1867863i bk1: 918a 1867428i bk2: 902a 1867826i bk3: 880a 1868977i bk4: 880a 1869135i bk5: 922a 1868477i bk6: 1018a 1867822i bk7: 1026a 1868285i bk8: 1026a 1866551i bk9: 1046a 1866636i bk10: 938a 1868579i bk11: 912a 1868609i bk12: 860a 1870696i bk13: 816a 1870786i bk14: 814a 1872110i bk15: 766a 1872948i 
dram_util_bins: 0 0 0 0 0 0 0 0 0 0
dram_eff_bins: 0 0 0 0 0 0 0 0 0 0
mrqq: max=14 avg=0.0185472
Memory Partition 3: 
Cache L2_bank_006:
MSHR contents

Cache L2_bank_007:
MSHR contents

In Dram Latency Queue (total = 0): 
DRAM[3]: 16 bks, busW=4 BL=8 CL=12, tRRD=2 tCCD=6, tRCD=12 tRAS=28 tRP=12 tRC=40
n_cmd=1875751 n_nop=1855274 n_act=2185 n_pre=2169 n_req=8404 n_rd=14238 n_write=1885 bw_util=0.01719
n_activity=153704 dram_eff=0.2098
bk0: 862a 1868644i bk1: 852a 1868474i bk2: 888a 1868533i bk3: 866a 1868944i bk4: 846a 1869509i bk5: 876a 1869348i bk6: 978a 1868700i bk7: 970a 1868835i bk8: 996a 1868180i bk9: 1010a 1867801i bk10: 930a 1868062i bk11: 930a 1868029i bk12: 810a 1871187i bk13: 832a 1870715i bk14: 788a 1871966i bk15: 804a 1872026i 
dram_util_bins: 0 0 0 0 0 0 0 0 0 0
dram_eff_bins: 0 0 0 0 0 0 0 0 0 0
mrqq: max=7 avg=0.0159419
Memory Partition 4: 
Cache L2_bank_008:
MSHR contents

Cache L2_bank_009:
MSHR contents

In Dram Latency Queue (total = 0): 
DRAM[4]: 16 bks, busW=4 BL=8 CL=12, tRRD=2 tCCD=6, tRCD=12 tRAS=28 tRP=12 tRC=40
n_cmd=1875751 n_nop=1855481 n_act=2074 n_pre=2058 n_req=8423 n_rd=14178 n_write=1960 bw_util=0.01721
n_activity=148830 dram_eff=0.2169
bk0: 838a 1869270i bk1: 868a 1869279i bk2: 880a 1868607i bk3: 872a 1868680i bk4: 904a 1868996i bk5: 864a 1869261i bk6: 974a 1868398i bk7: 960a 1868452i bk8: 1024a 1867441i bk9: 1010a 1867307i bk10: 910a 1869174i bk11: 908a 1869185i bk12: 834a 1870618i bk13: 800a 1871176i bk14: 768a 1872158i bk15: 764a 1872548i 
dram_util_bins: 0 0 0 0 0 0 0 0 0 0
dram_eff_bins: 0 0 0 0 0 0 0 0 0 0
mrqq: max=9 avg=0.0168226
Memory Partition 5: 
Cache L2_bank_010:
MSHR contents

Cache L2_bank_011:
MSHR contents

In Dram Latency Queue (total = 0): 
DRAM[5]: 16 bks, busW=4 BL=8 CL=12, tRRD=2 tCCD=6, tRCD=12 tRAS=28 tRP=12 tRC=40
n_cmd=1875751 n_nop=1855217 n_act=2160 n_pre=2144 n_req=8465 n_rd=14304 n_write=1926 bw_util=0.01731
n_activity=152626 dram_eff=0.2127
bk0: 880a 1868910i bk1: 856a 1868845i bk2: 842a 1868386i bk3: 884a 1868098i bk4: 886a 1869239i bk5: 880a 1869239i bk6: 964a 1869014i bk7: 974a 1868804i bk8: 1040a 1867201i bk9: 1044a 1866978i bk10: 928a 1868705i bk11: 956a 1867897i bk12: 824a 1870769i bk13: 806a 1870933i bk14: 768a 1872217i bk15: 772a 1872500i 
dram_util_bins: 0 0 0 0 0 0 0 0 0 0
dram_eff_bins: 0 0 0 0 0 0 0 0 0 0
mrqq: max=6 avg=0.0162372

========= L2 cache stats =========
L2_cache_bank[0]: Access = 90261, Miss = 3592, Miss_rate = 0.040, Pending_hits = 11, Reservation_fails = 227
L2_cache_bank[1]: Access = 91046, Miss = 3605, Miss_rate = 0.040, Pending_hits = 6, Reservation_fails = 0
L2_cache_bank[2]: Access = 90039, Miss = 3657, Miss_rate = 0.041, Pending_hits = 9, Reservation_fails = 115
L2_cache_bank[3]: Access = 91453, Miss = 3616, Miss_rate = 0.040, Pending_hits = 6, Reservation_fails = 0
L2_cache_bank[4]: Access = 89801, Miss = 3679, Miss_rate = 0.041, Pending_hits = 4, Reservation_fails = 0
L2_cache_bank[5]: Access = 91806, Miss = 3643, Miss_rate = 0.040, Pending_hits = 1, Reservation_fails = 0
L2_cache_bank[6]: Access = 90595, Miss = 3549, Miss_rate = 0.039, Pending_hits = 3, Reservation_fails = 0
L2_cache_bank[7]: Access = 91293, Miss = 3570, Miss_rate = 0.039, Pending_hits = 1, Reservation_fails = 0
L2_cache_bank[8]: Access = 129090, Miss = 3566, Miss_rate = 0.028, Pending_hits = 1, Reservation_fails = 0
L2_cache_bank[9]: Access = 91938, Miss = 3523, Miss_rate = 0.038, Pending_hits = 4, Reservation_fails = 0
L2_cache_bank[10]: Access = 90627, Miss = 3566, Miss_rate = 0.039, Pending_hits = 6, Reservation_fails = 0
L2_cache_bank[11]: Access = 91817, Miss = 3586, Miss_rate = 0.039, Pending_hits = 4, Reservation_fails = 0
L2_total_cache_accesses = 1129766
L2_total_cache_misses = 43152
L2_total_cache_miss_rate = 0.0382
L2_total_cache_pending_hits = 56
L2_total_cache_reservation_fails = 342
L2_total_cache_breakdown:
	L2_cache_stats_breakdown[GLOBAL_ACC_R][HIT] = 667627
	L2_cache_stats_breakdown[GLOBAL_ACC_R][HIT_RESERVED] = 12
	L2_cache_stats_breakdown[GLOBAL_ACC_R][MISS] = 38950
	L2_cache_stats_breakdown[CONST_ACC_R][HIT] = 11
	L2_cache_stats_breakdown[CONST_ACC_R][HIT_RESERVED] = 3
	L2_cache_stats_breakdown[CONST_ACC_R][MISS] = 1
	L2_cache_stats_breakdown[CONST_ACC_R][RESERVATION_FAIL] = 111
	L2_cache_stats_breakdown[GLOBAL_ACC_W][HIT] = 418870
	L2_cache_stats_breakdown[GLOBAL_ACC_W][HIT_RESERVED] = 35
	L2_cache_stats_breakdown[GLOBAL_ACC_W][MISS] = 4197
	L2_cache_stats_breakdown[INST_ACC_R][HIT] = 50
	L2_cache_stats_breakdown[INST_ACC_R][HIT_RESERVED] = 6
	L2_cache_stats_breakdown[INST_ACC_R][MISS] = 4
	L2_cache_stats_breakdown[INST_ACC_R][RESERVATION_FAIL] = 231
L2_cache_data_port_util = 0.182
L2_cache_fill_port_util = 0.010

icnt_total_pkts_mem_to_simt=3956392
icnt_total_pkts_simt_to_mem=1553522
LD_mem_lat_dist  0 0 0 0 0 0 0 0 0 0 0 0 0 0 0 0 0 0 0 0 0 0 0 0 0 0 0
ST_mem_lat_dist  0 0 0 0 0 0 0 0 0 0 0 0 0 0 0 0 0 0 0 0 0 0 0 0 0 0 0
----------------------------Interconnect-DETAILS--------------------------------
Class 0:
Packet latency average = 9.1099
	minimum = 6
	maximum = 33
Network latency average = 8.8474
	minimum = 6
	maximum = 33
Slowest packet = 2259306
Flit latency average = 7.41183
	minimum = 6
	maximum = 29
Slowest flit = 5509176
Fragmentation average = 0
	minimum = 0
	maximum = 0
Injected packet rate average = 0.0177733
	minimum = 0.0124969 (at node 13)
	maximum = 0.0247438 (at node 25)
Accepted packet rate average = 0.0177733
	minimum = 0.0124969 (at node 13)
	maximum = 0.0247438 (at node 25)
Injected flit rate average = 0.0507095
	minimum = 0.0132467 (at node 4)
	maximum = 0.112722 (at node 25)
Accepted flit rate average= 0.0507095
	minimum = 0.0187453 (at node 16)
	maximum = 0.106723 (at node 12)
Injected packet length average = 2.85312
Accepted packet length average = 2.85312
Total in-flight flits = 0 (0 measured)
====== Overall Traffic Statistics ======
====== Traffic class 0 ======
Packet latency average = 12.8273 (8 samples)
	minimum = 6 (8 samples)
	maximum = 71.375 (8 samples)
Network latency average = 11.4292 (8 samples)
	minimum = 6 (8 samples)
	maximum = 65.375 (8 samples)
Flit latency average = 10.3122 (8 samples)
	minimum = 6 (8 samples)
	maximum = 62 (8 samples)
Fragmentation average = 0 (8 samples)
	minimum = 0 (8 samples)
	maximum = 0 (8 samples)
Injected packet rate average = 0.0316609 (8 samples)
	minimum = 0.024195 (8 samples)
	maximum = 0.0540325 (8 samples)
Accepted packet rate average = 0.0316609 (8 samples)
	minimum = 0.024195 (8 samples)
	maximum = 0.0540325 (8 samples)
Injected flit rate average = 0.0801151 (8 samples)
	minimum = 0.0313492 (8 samples)
	maximum = 0.155829 (8 samples)
Accepted flit rate average = 0.0801151 (8 samples)
	minimum = 0.0411392 (8 samples)
	maximum = 0.13032 (8 samples)
Injected packet size average = 2.53041 (8 samples)
Accepted packet size average = 2.53041 (8 samples)
Hops average = 1 (8 samples)
----------------------------END-of-Interconnect-DETAILS-------------------------


gpgpu_simulation_time = 0 days, 0 hrs, 12 min, 39 sec (759 sec)
gpgpu_simulation_rate = 21049 (inst/sec)
gpgpu_simulation_rate = 1872 (cycle/sec)
GPGPU-Sim: synchronize waiting for inactive GPU simulation
GPGPU-Sim API: Stream Manager State
GPGPU-Sim: detected inactive GPU simulation thread
Kernel Executed 8 times
Processing time: 758599.500000 (ms)
Result stored in result.txt
