

        *** GPGPU-Sim Simulator Version 3.2.2  [build 0] ***


GPGPU-Sim PTX: simulation mode 0 (can change with PTX_SIM_MODE_FUNC environment variable:
               1=functional simulation only, 0=detailed performance simulator)
GPGPU-Sim: Configuration options:

-network_mode                           1 # Interconnection network mode
-inter_config_file   config_fermi_islip.icnt # Interconnection network config file
-gpgpu_ptx_use_cuobjdump                    1 # Use cuobjdump to extract ptx and sass from binaries
-gpgpu_experimental_lib_support                    0 # Try to extract code from cuda libraries [Broken because of unknown cudaGetExportTable]
-gpgpu_ptx_convert_to_ptxplus                    0 # Convert SASS (native ISA) to ptxplus and run ptxplus
-gpgpu_ptx_force_max_capability                   20 # Force maximum compute capability
-gpgpu_ptx_inst_debug_to_file                    0 # Dump executed instructions' debug information to file
-gpgpu_ptx_inst_debug_file       inst_debug.txt # Executed instructions' debug output file
-gpgpu_ptx_inst_debug_thread_uid                    1 # Thread UID for executed instructions' debug output
-gpgpu_simd_model                       1 # 1 = post-dominator
-gpgpu_shader_core_pipeline              1536:32 # shader core pipeline config, i.e., {<nthread>:<warpsize>}
-gpgpu_tex_cache:l1  4:128:24,L:R:m:N:L,F:128:4,128:2 # per-shader L1 texture cache  (READ-ONLY) config  {<nsets>:<bsize>:<assoc>,<rep>:<wr>:<alloc>:<wr_alloc>,<mshr>:<N>:<merge>,<mq>:<rf>}
-gpgpu_const_cache:l1 64:64:2,L:R:f:N:L,A:2:32,4 # per-shader L1 constant memory cache  (READ-ONLY) config  {<nsets>:<bsize>:<assoc>,<rep>:<wr>:<alloc>:<wr_alloc>,<mshr>:<N>:<merge>,<mq>} 
-gpgpu_cache:il1     4:128:4,L:R:f:N:L,A:2:32,4 # shader L1 instruction cache config  {<nsets>:<bsize>:<assoc>,<rep>:<wr>:<alloc>:<wr_alloc>,<mshr>:<N>:<merge>,<mq>} 
-gpgpu_cache:dl1     64:128:4,L:L:m:N:H,A:32:8,8 # per-shader L1 data cache config  {<nsets>:<bsize>:<assoc>,<rep>:<wr>:<alloc>:<wr_alloc>,<mshr>:<N>:<merge>,<mq> | none}
-gpgpu_cache:dl1PrefL1                 none # per-shader L1 data cache config  {<nsets>:<bsize>:<assoc>,<rep>:<wr>:<alloc>:<wr_alloc>,<mshr>:<N>:<merge>,<mq> | none}
-gpgpu_cache:dl1PreShared                 none # per-shader L1 data cache config  {<nsets>:<bsize>:<assoc>,<rep>:<wr>:<alloc>:<wr_alloc>,<mshr>:<N>:<merge>,<mq> | none}
-gmem_skip_L1D                          0 # global memory access skip L1D cache (implements -Xptxas -dlcm=cg, default=no skip)
-gpgpu_perfect_mem                      0 # enable perfect memory mode (no cache miss)
-n_regfile_gating_group                    4 # group of lanes that should be read/written together)
-gpgpu_clock_gated_reg_file                    0 # enable clock gated reg file for power calculations
-gpgpu_clock_gated_lanes                    0 # enable clock gated lanes for power calculations
-gpgpu_shader_registers                32768 # Number of registers per shader core. Limits number of concurrent CTAs. (default 8192)
-gpgpu_shader_cta                       8 # Maximum number of concurrent CTAs in shader (default 8)
-gpgpu_num_cta_barriers                   16 # Maximum number of named barriers per CTA (default 16)
-gpgpu_n_clusters                      15 # number of processing clusters
-gpgpu_n_cores_per_cluster                    1 # number of simd cores per cluster
-gpgpu_n_cluster_ejection_buffer_size                    8 # number of packets in ejection buffer
-gpgpu_n_ldst_response_buffer_size                    2 # number of response packets in ld/st unit ejection buffer
-gpgpu_shmem_size                   16384 # Size of shared memory per shader core (default 16kB)
-gpgpu_shmem_size                   49152 # Size of shared memory per shader core (default 16kB)
-gpgpu_shmem_size_PrefL1                16384 # Size of shared memory per shader core (default 16kB)
-gpgpu_shmem_size_PrefShared                16384 # Size of shared memory per shader core (default 16kB)
-gpgpu_shmem_num_banks                   32 # Number of banks in the shared memory in each shader core (default 16)
-gpgpu_shmem_limited_broadcast                    0 # Limit shared memory to do one broadcast per cycle (default on)
-gpgpu_shmem_warp_parts                    1 # Number of portions a warp is divided into for shared memory bank conflict check 
-gpgpu_warpdistro_shader                   -1 # Specify which shader core to collect the warp size distribution from
-gpgpu_warp_issue_shader                    0 # Specify which shader core to collect the warp issue distribution from
-gpgpu_local_mem_map                    1 # Mapping from local memory space address to simulated GPU physical address space (default = enabled)
-gpgpu_num_reg_banks                   16 # Number of register banks (default = 8)
-gpgpu_reg_bank_use_warp_id                    0 # Use warp ID in mapping registers to banks (default = off)
-gpgpu_operand_collector_num_units_sp                    6 # number of collector units (default = 4)
-gpgpu_operand_collector_num_units_sfu                    8 # number of collector units (default = 4)
-gpgpu_operand_collector_num_units_mem                    2 # number of collector units (default = 2)
-gpgpu_operand_collector_num_units_gen                    0 # number of collector units (default = 0)
-gpgpu_operand_collector_num_in_ports_sp                    2 # number of collector unit in ports (default = 1)
-gpgpu_operand_collector_num_in_ports_sfu                    1 # number of collector unit in ports (default = 1)
-gpgpu_operand_collector_num_in_ports_mem                    1 # number of collector unit in ports (default = 1)
-gpgpu_operand_collector_num_in_ports_gen                    0 # number of collector unit in ports (default = 0)
-gpgpu_operand_collector_num_out_ports_sp                    2 # number of collector unit in ports (default = 1)
-gpgpu_operand_collector_num_out_ports_sfu                    1 # number of collector unit in ports (default = 1)
-gpgpu_operand_collector_num_out_ports_mem                    1 # number of collector unit in ports (default = 1)
-gpgpu_operand_collector_num_out_ports_gen                    0 # number of collector unit in ports (default = 0)
-gpgpu_coalesce_arch                   13 # Coalescing arch (default = 13, anything else is off for now)
-gpgpu_num_sched_per_core                    2 # Number of warp schedulers per core
-gpgpu_max_insn_issue_per_warp                    1 # Max number of instructions that can be issued per warp in one cycle by scheduler
-gpgpu_simt_core_sim_order                    1 # Select the simulation order of cores in a cluster (0=Fix, 1=Round-Robin)
-gpgpu_pipeline_widths        2,1,1,2,1,1,2 # Pipeline widths ID_OC_SP,ID_OC_SFU,ID_OC_MEM,OC_EX_SP,OC_EX_SFU,OC_EX_MEM,EX_WB
-gpgpu_num_sp_units                     2 # Number of SP units (default=1)
-gpgpu_num_sfu_units                    1 # Number of SF units (default=1)
-gpgpu_num_mem_units                    1 # Number if ldst units (default=1) WARNING: not hooked up to anything
-gpgpu_scheduler                      gto # Scheduler configuration: < lrr | gto | two_level_active > If two_level_active:<num_active_warps>:<inner_prioritization>:<outer_prioritization>For complete list of prioritization values see shader.h enum scheduler_prioritization_typeDefault: gto
-gpgpu_dram_scheduler                    1 # 0 = fifo, 1 = FR-FCFS (defaul)
-gpgpu_dram_partition_queues              8:8:8:8 # i2$:$2d:d2$:$2i
-l2_ideal                               0 # Use a ideal L2 cache that always hit
-gpgpu_cache:dl2     64:128:8,L:B:m:W:L,A:32:4,4:0,32 # unified banked L2 data cache config  {<nsets>:<bsize>:<assoc>,<rep>:<wr>:<alloc>:<wr_alloc>,<mshr>:<N>:<merge>,<mq>}
-gpgpu_cache:dl2_texture_only                    0 # L2 cache used for texture only
-gpgpu_n_mem                            6 # number of memory modules (e.g. memory controllers) in gpu
-gpgpu_n_sub_partition_per_mchannel                    2 # number of memory subpartition in each memory module
-gpgpu_n_mem_per_ctrlr                    2 # number of memory chips per memory controller
-gpgpu_memlatency_stat                   14 # track and display latency statistics 0x2 enables MC, 0x4 enables queue logs
-gpgpu_frfcfs_dram_sched_queue_size                   16 # 0 = unlimited (default); # entries per chip
-gpgpu_dram_return_queue_size                  116 # 0 = unlimited (default); # entries per chip
-gpgpu_dram_buswidth                    4 # default = 4 bytes (8 bytes per cycle at DDR)
-gpgpu_dram_burst_length                    8 # Burst length of each DRAM request (default = 4 data bus cycle)
-dram_data_command_freq_ratio                    4 # Frequency ratio between DRAM data bus and command bus (default = 2 times, i.e. DDR)
-gpgpu_dram_timing_opt nbk=16:CCD=2:RRD=6:RCD=12:RAS=28:RP=12:RC=40: CL=12:WL=4:CDLR=5:WR=12:nbkgrp=4:CCDL=3:RTPL=2 # DRAM timing parameters = {nbk:tCCD:tRRD:tRCD:tRAS:tRP:tRC:CL:WL:tCDLR:tWR:nbkgrp:tCCDL:tRTPL}
-rop_latency                          120 # ROP queue latency (default 85)
-dram_latency                         100 # DRAM latency (default 30)
-gpgpu_mem_addr_mapping dramid@8;00000000.00000000.00000000.00000000.0000RRRR.RRRRRRRR.BBBCCCCB.CCSSSSSS # mapping memory address to dram model {dramid@<start bit>;<memory address map>}
-gpgpu_mem_addr_test                    0 # run sweep test to check address mapping for aliased address
-gpgpu_mem_address_mask                    1 # 0 = old addressing mask, 1 = new addressing mask, 2 = new add. mask + flipped bank sel and chip sel bits
-gpuwattch_xml_file  gpuwattch_gtx480.xml # GPUWattch XML file
-power_simulation_enabled                    1 # Turn on power simulator (1=On, 0=Off)
-power_per_cycle_dump                    0 # Dump detailed power output each cycle
-power_trace_enabled                    0 # produce a file for the power trace (1=On, 0=Off)
-power_trace_zlevel                     6 # Compression level of the power trace output log (0=no comp, 9=highest)
-steady_power_levels_enabled                    0 # produce a file for the steady power levels (1=On, 0=Off)
-steady_state_definition                  8:4 # allowed deviation:number of samples
-gpgpu_max_cycle                        0 # terminates gpu simulation early (0 = no limit)
-gpgpu_max_insn                         0 # terminates gpu simulation early (0 = no limit)
-gpgpu_max_cta                          0 # terminates gpu simulation early (0 = no limit)
-gpgpu_runtime_stat                   500 # display runtime statistics such as dram utilization {<freq>:<flag>}
-liveness_message_freq                    1 # Minimum number of seconds between simulation liveness messages (0 = always print)
-gpgpu_flush_l1_cache                    0 # Flush L1 cache at the end of each kernel call
-gpgpu_flush_l2_cache                    0 # Flush L2 cache at the end of each kernel call
-gpgpu_deadlock_detect                    1 # Stop the simulation at deadlock (1=on (default), 0=off)
-gpgpu_ptx_instruction_classification                    0 # if enabled will classify ptx instruction types per kernel (Max 255 kernels now)
-gpgpu_ptx_sim_mode                     0 # Select between Performance (default) or Functional simulation (1)
-gpgpu_clock_domains 700.0:700.0:700.0:924.0 # Clock Domain Frequencies in MhZ {<Core Clock>:<ICNT Clock>:<L2 Clock>:<DRAM Clock>}
-gpgpu_max_concurrent_kernel                    8 # maximum kernels that can run concurrently on GPU
-gpgpu_cflog_interval                    0 # Interval between each snapshot in control flow logger
-visualizer_enabled                     0 # Turn on visualizer output (1=On, 0=Off)
-visualizer_outputfile                 NULL # Specifies the output log file for visualizer
-visualizer_zlevel                      6 # Compression level of the visualizer output log (0=no comp, 9=highest)
-trace_enabled                          0 # Turn on traces
-trace_components                    none # comma seperated list of traces to enable. Complete list found in trace_streams.tup. Default none
-trace_sampling_core                    0 # The core which is printed using CORE_DPRINTF. Default 0
-trace_sampling_memory_partition                   -1 # The memory partition which is printed using MEMPART_DPRINTF. Default -1 (i.e. all)
-enable_ptx_file_line_stats                    1 # Turn on PTX source line statistic profiling. (1 = On)
-ptx_line_stats_filename gpgpu_inst_stats.txt # Output file for PTX source line statistics.
-save_embedded_ptx                      0 # saves ptx files embedded in binary as <n>.ptx
-keep                                   0 # keep intermediate files created by GPGPU-Sim when interfacing with external programs
-gpgpu_ptx_save_converted_ptxplus                    0 # Saved converted ptxplus to a file
-ptx_opcode_latency_int         4,13,4,5,145 # Opcode latencies for integers <ADD,MAX,MUL,MAD,DIV>Default 1,1,19,25,145
-ptx_opcode_latency_fp          4,13,4,5,39 # Opcode latencies for single precision floating points <ADD,MAX,MUL,MAD,DIV>Default 1,1,1,1,30
-ptx_opcode_latency_dp         8,19,8,8,330 # Opcode latencies for double precision floating points <ADD,MAX,MUL,MAD,DIV>Default 8,8,8,8,335
-ptx_opcode_initiation_int            1,2,2,1,8 # Opcode initiation intervals for integers <ADD,MAX,MUL,MAD,DIV>Default 1,1,4,4,32
-ptx_opcode_initiation_fp            1,2,1,1,4 # Opcode initiation intervals for single precision floating points <ADD,MAX,MUL,MAD,DIV>Default 1,1,1,1,5
-ptx_opcode_initiation_dp         8,16,8,8,130 # Opcode initiation intervals for double precision floating points <ADD,MAX,MUL,MAD,DIV>Default 8,8,8,8,130
DRAM Timing Options:
nbk                                    16 # number of banks
CCD                                     2 # column to column delay
RRD                                     6 # minimal delay between activation of rows in different banks
RCD                                    12 # row to column delay
RAS                                    28 # time needed to activate row
RP                                     12 # time needed to precharge (deactivate) row
RC                                     40 # row cycle time
CDLR                                    5 # switching from write to read (changes tWTR)
WR                                     12 # last data-in to row precharge
CL                                     12 # CAS latency
WL                                      4 # Write latency
nbkgrp                                  4 # number of bank groups
CCDL                                    3 # column to column delay between accesses to different bank groups
RTPL                                    2 # read to precharge delay between accesses to different bank groups
Total number of memory sub partition = 12
addr_dec_mask[CHIP]  = 0000000000000000 	high:64 low:0
addr_dec_mask[BK]    = 000000000000e100 	high:16 low:8
addr_dec_mask[ROW]   = 000000000fff0000 	high:28 low:16
addr_dec_mask[COL]   = 0000000000001eff 	high:13 low:0
addr_dec_mask[BURST] = 000000000000003f 	high:6 low:0
sub_partition_id_mask = 0000000000000100
GPGPU-Sim uArch: clock freqs: 700000000.000000:700000000.000000:700000000.000000:924000000.000000
GPGPU-Sim uArch: clock periods: 0.00000000142857142857:0.00000000142857142857:0.00000000142857142857:0.00000000108225108225
*** Initializing Memory Statistics ***
GPGPU-Sim uArch: interconnect node map (shaderID+MemID to icntID)
GPGPU-Sim uArch: Memory nodes ID start from index: 15
GPGPU-Sim uArch:    0   1   2   3   4
GPGPU-Sim uArch:    5   6   7   8   9
GPGPU-Sim uArch:   10  11  12  13  14
GPGPU-Sim uArch:   15  16  17  18  19
GPGPU-Sim uArch:   20  21  22  23  24
GPGPU-Sim uArch:   25  26
GPGPU-Sim uArch: interconnect node reverse map (icntID to shaderID+MemID)
GPGPU-Sim uArch: Memory nodes start from ID: 15
GPGPU-Sim uArch:    0   1   2   3   4
GPGPU-Sim uArch:    5   6   7   8   9
GPGPU-Sim uArch:   10  11  12  13  14
GPGPU-Sim uArch:   15  16  17  18  19
GPGPU-Sim uArch:   20  21  22  23  24
GPGPU-Sim uArch:   25  26
76921fba15ffd374ad2c9ad88216e3c5  /home/scratch/adwait/applications/benchmarks/CUDA/LIB/gpgpu_ptx_sim__LIB
GPGPU-Sim uArch: performance model initialization complete.
GPGPU-Sim PTX: __cudaRegisterFatBinary, fat_cubin_handle = 1, filename=libor.cu
self exe links to: /home/scratch/adwait/applications/benchmarks/CUDA/LIB/gpgpu_ptx_sim__LIB
Running md5sum using "md5sum /home/scratch/adwait/applications/benchmarks/CUDA/LIB/gpgpu_ptx_sim__LIB "
Running cuobjdump using "$CUDA_INSTALL_PATH/bin/cuobjdump -ptx -elf -sass /home/scratch/adwait/applications/benchmarks/CUDA/LIB/gpgpu_ptx_sim__LIB > _cuobjdump_complete_output_tHr6BM"
Parsing file _cuobjdump_complete_output_tHr6BM
######### cuobjdump parser ########
## Adding new section ELF
Adding arch: sm_20
Adding identifier: libor.cu
## Adding new section PTX
Adding ptx filename: _cuobjdump_1.ptx
Adding arch: sm_20
Adding identifier: libor.cu
Done parsing!!!
GPGPU-Sim PTX: __cudaRegisterFunction _Z29Pathcalc_Portfolio_KernelGPU2Pf : hostFun 0x0x40508c, fat_cubin_handle = 1
GPGPU-Sim PTX: allocating stack frame region for .param "__cudaparmf1__Z9path_calcPfS_" from 0x0 to 0x8
GPGPU-Sim PTX: allocating stack frame region for .param "__cudaparmf2__Z9path_calcPfS_" from 0x8 to 0x10
GPGPU-Sim PTX: allocating stack frame region for .param "__cudaparmf1__Z12path_calc_b1PfS_S_" from 0x0 to 0x8
GPGPU-Sim PTX: allocating stack frame region for .param "__cudaparmf2__Z12path_calc_b1PfS_S_" from 0x8 to 0x10
GPGPU-Sim PTX: allocating stack frame region for .param "__cudaparmf3__Z12path_calc_b1PfS_S_" from 0x10 to 0x18
GPGPU-Sim PTX: allocating stack frame region for .param "__cudaparmf1__Z12path_calc_b2PfS_S_" from 0x0 to 0x8
GPGPU-Sim PTX: allocating stack frame region for .param "__cudaparmf2__Z12path_calc_b2PfS_S_" from 0x8 to 0x10
GPGPU-Sim PTX: allocating stack frame region for .param "__cudaparmf3__Z12path_calc_b2PfS_S_" from 0x10 to 0x18
GPGPU-Sim PTX: allocating stack frame region for .param "__cudaretf__Z11portfolio_bPfS_" from 0x0 to 0x4
GPGPU-Sim PTX: allocating stack frame region for .param "__cudaparmf1__Z11portfolio_bPfS_" from 0x4 to 0xc
GPGPU-Sim PTX: allocating stack frame region for .param "__cudaparmf2__Z11portfolio_bPfS_" from 0xc to 0x14
GPGPU-Sim PTX: allocating stack frame region for .param "__cudaretf__Z9portfolioPf" from 0x0 to 0x4
GPGPU-Sim PTX: allocating stack frame region for .param "__cudaparmf1__Z9portfolioPf" from 0x4 to 0xc
GPGPU-Sim PTX: allocating constant region for "N" from 0x100 to 0x104 (global memory space) 1
GPGPU-Sim PTX: allocating constant region for "Nmat" from 0x104 to 0x108 (global memory space) 2
GPGPU-Sim PTX: allocating constant region for "delta" from 0x108 to 0x10c (global memory space) 3
GPGPU-Sim PTX: allocating constant region for "lambda" from 0x180 to 0x2c0 (global memory space) 4
GPGPU-Sim PTX: instruction assembly for function '_Z9path_calcPfS_'...   done.
GPGPU-Sim PTX: finding reconvergence points for '_Z9path_calcPfS_'...
GPGPU-Sim PTX: Finding dominators for '_Z9path_calcPfS_'...
GPGPU-Sim PTX: Finding immediate dominators for '_Z9path_calcPfS_'...
GPGPU-Sim PTX: Finding postdominators for '_Z9path_calcPfS_'...
GPGPU-Sim PTX: Finding immediate postdominators for '_Z9path_calcPfS_'...
GPGPU-Sim PTX: pre-decoding instructions for '_Z9path_calcPfS_'...
GPGPU-Sim PTX: reconvergence points for _Z9path_calcPfS_...
GPGPU-Sim PTX:  1 (potential) branch divergence @  PC=0x038 (_1.ptx:81) @%p1 bra $Lt_0_2306;
GPGPU-Sim PTX:    immediate post dominator      @  PC=0x218 (_1.ptx:153) ret;
GPGPU-Sim PTX:  2 (potential) branch divergence @  PC=0x0a8 (_1.ptx:99) @%p2 bra $Lt_0_3074;
GPGPU-Sim PTX:    immediate post dominator      @  PC=0x1f8 (_1.ptx:147) mov.s32 %r5, %r7;
GPGPU-Sim PTX:  3 (potential) branch divergence @  PC=0x1f0 (_1.ptx:145) @%p3 bra $Lt_0_3586;
GPGPU-Sim PTX:    immediate post dominator      @  PC=0x1f8 (_1.ptx:147) mov.s32 %r5, %r7;
GPGPU-Sim PTX:  4 (potential) branch divergence @  PC=0x210 (_1.ptx:150) @%p4 bra $Lt_0_2818;
GPGPU-Sim PTX:    immediate post dominator      @  PC=0x218 (_1.ptx:153) ret;
GPGPU-Sim PTX: ... end of reconvergence points for _Z9path_calcPfS_
GPGPU-Sim PTX: ... done pre-decoding instructions for '_Z9path_calcPfS_'.
GPGPU-Sim PTX: instruction assembly for function '_Z12path_calc_b1PfS_S_'...   done.
GPGPU-Sim PTX: finding reconvergence points for '_Z12path_calc_b1PfS_S_'...
GPGPU-Sim PTX: Finding dominators for '_Z12path_calc_b1PfS_S_'...
GPGPU-Sim PTX: Finding immediate dominators for '_Z12path_calc_b1PfS_S_'...
GPGPU-Sim PTX: Finding postdominators for '_Z12path_calc_b1PfS_S_'...
GPGPU-Sim PTX: Finding immediate postdominators for '_Z12path_calc_b1PfS_S_'...
GPGPU-Sim PTX: pre-decoding instructions for '_Z12path_calc_b1PfS_S_'...
GPGPU-Sim PTX: reconvergence points for _Z12path_calc_b1PfS_S_...
GPGPU-Sim PTX:  1 (potential) branch divergence @  PC=0x268 (_1.ptx:175) @%p1 bra $Lt_1_3330;
GPGPU-Sim PTX:    immediate post dominator      @  PC=0x2d0 (_1.ptx:192) ld.const.s32 %r6, [Nmat];
GPGPU-Sim PTX:  2 (potential) branch divergence @  PC=0x2c8 (_1.ptx:190) @%p2 bra $Lt_1_3842;
GPGPU-Sim PTX:    immediate post dominator      @  PC=0x2d0 (_1.ptx:192) ld.const.s32 %r6, [Nmat];
GPGPU-Sim PTX:  3 (potential) branch divergence @  PC=0x2e8 (_1.ptx:195) @%p3 bra $Lt_1_4354;
GPGPU-Sim PTX:    immediate post dominator      @  PC=0x4f8 (_1.ptx:274) ret;
GPGPU-Sim PTX:  4 (potential) branch divergence @  PC=0x350 (_1.ptx:212) @%p4 bra $Lt_1_5122;
GPGPU-Sim PTX:    immediate post dominator      @  PC=0x4d8 (_1.ptx:268) mov.s32 %r9, %r11;
GPGPU-Sim PTX:  5 (potential) branch divergence @  PC=0x4d0 (_1.ptx:266) @%p5 bra $Lt_1_5634;
GPGPU-Sim PTX:    immediate post dominator      @  PC=0x4d8 (_1.ptx:268) mov.s32 %r9, %r11;
GPGPU-Sim PTX:  6 (potential) branch divergence @  PC=0x4f0 (_1.ptx:271) @%p6 bra $Lt_1_4866;
GPGPU-Sim PTX:    immediate post dominator      @  PC=0x4f8 (_1.ptx:274) ret;
GPGPU-Sim PTX: ... end of reconvergence points for _Z12path_calc_b1PfS_S_
GPGPU-Sim PTX: ... done pre-decoding instructions for '_Z12path_calc_b1PfS_S_'.
GPGPU-Sim PTX: instruction assembly for function '_Z12path_calc_b2PfS_S_'...   done.
GPGPU-Sim PTX: finding reconvergence points for '_Z12path_calc_b2PfS_S_'...
GPGPU-Sim PTX: Finding dominators for '_Z12path_calc_b2PfS_S_'...
GPGPU-Sim PTX: Finding immediate dominators for '_Z12path_calc_b2PfS_S_'...
GPGPU-Sim PTX: Finding postdominators for '_Z12path_calc_b2PfS_S_'...
GPGPU-Sim PTX: Finding immediate postdominators for '_Z12path_calc_b2PfS_S_'...
GPGPU-Sim PTX: pre-decoding instructions for '_Z12path_calc_b2PfS_S_'...
GPGPU-Sim PTX: reconvergence points for _Z12path_calc_b2PfS_S_...
GPGPU-Sim PTX:  1 (potential) branch divergence @  PC=0x548 (_1.ptx:297) @%p1 bra $Lt_2_2306;
GPGPU-Sim PTX:    immediate post dominator      @  PC=0x730 (_1.ptx:368) ret;
GPGPU-Sim PTX:  2 (potential) branch divergence @  PC=0x580 (_1.ptx:306) @%p2 bra $Lt_2_3074;
GPGPU-Sim PTX:    immediate post dominator      @  PC=0x710 (_1.ptx:362) sub.s32 %r3, %r3, 1;
GPGPU-Sim PTX:  3 (potential) branch divergence @  PC=0x708 (_1.ptx:360) @%p3 bra $Lt_2_3586;
GPGPU-Sim PTX:    immediate post dominator      @  PC=0x710 (_1.ptx:362) sub.s32 %r3, %r3, 1;
GPGPU-Sim PTX:  4 (potential) branch divergence @  PC=0x728 (_1.ptx:365) @%p4 bra $Lt_2_2818;
GPGPU-Sim PTX:    immediate post dominator      @  PC=0x730 (_1.ptx:368) ret;
GPGPU-Sim PTX: ... end of reconvergence points for _Z12path_calc_b2PfS_S_
GPGPU-Sim PTX: ... done pre-decoding instructions for '_Z12path_calc_b2PfS_S_'.
GPGPU-Sim PTX: allocating constant region for "Nopt" from 0x2c0 to 0x2c4 (global memory space) 5
GPGPU-Sim PTX: allocating constant region for "maturities" from 0x300 to 0x33c (global memory space) 6
GPGPU-Sim PTX: allocating constant region for "swaprates" from 0x380 to 0x3bc (global memory space) 7
GPGPU-Sim PTX: allocating stack frame region for .local "__cuda___cuda_local_var_33501_9_non_const_B_16440" from 0x80 to 0x120
GPGPU-Sim PTX: allocating stack frame region for .local "__cuda___cuda_local_var_33501_16_non_const_S_176600" from 0x180 to 0x220
GPGPU-Sim PTX: allocating stack frame region for .local "__cuda___cuda_local_var_33501_23_non_const_B_b_336760" from 0x280 to 0x320
GPGPU-Sim PTX: allocating stack frame region for .local "__cuda___cuda_local_var_33501_32_non_const_S_b_496920" from 0x380 to 0x420
GPGPU-Sim PTX: instruction assembly for function '_Z11portfolio_bPfS_'...   done.
GPGPU-Sim PTX: finding reconvergence points for '_Z11portfolio_bPfS_'...
GPGPU-Sim PTX: Finding dominators for '_Z11portfolio_bPfS_'...
GPGPU-Sim PTX: Finding immediate dominators for '_Z11portfolio_bPfS_'...
GPGPU-Sim PTX: Finding postdominators for '_Z11portfolio_bPfS_'...
GPGPU-Sim PTX: Finding immediate postdominators for '_Z11portfolio_bPfS_'...
GPGPU-Sim PTX: pre-decoding instructions for '_Z11portfolio_bPfS_'...
GPGPU-Sim PTX: reconvergence points for _Z11portfolio_bPfS_...
GPGPU-Sim PTX:  1 (potential) branch divergence @  PC=0x780 (_1.ptx:397) @!%p1 bra $Lt_3_8962;
GPGPU-Sim PTX:    immediate post dominator      @  PC=0x868 (_1.ptx:433) @!%p1 bra $Lt_3_9986;
GPGPU-Sim PTX:  2 (potential) branch divergence @  PC=0x860 (_1.ptx:431) @%p2 bra $Lt_3_9474;
GPGPU-Sim PTX:    immediate post dominator      @  PC=0x868 (_1.ptx:433) @!%p1 bra $Lt_3_9986;
GPGPU-Sim PTX:  3 (potential) branch divergence @  PC=0x868 (_1.ptx:433) @!%p1 bra $Lt_3_9986;
GPGPU-Sim PTX:    immediate post dominator      @  PC=0x8e0 (_1.ptx:453) ld.const.s32 %r11, [Nopt];
GPGPU-Sim PTX:  4 (potential) branch divergence @  PC=0x8d8 (_1.ptx:451) @%p3 bra $Lt_3_10498;
GPGPU-Sim PTX:    immediate post dominator      @  PC=0x8e0 (_1.ptx:453) ld.const.s32 %r11, [Nopt];
GPGPU-Sim PTX:  5 (potential) branch divergence @  PC=0x8f8 (_1.ptx:456) @%p4 bra $Lt_3_17666;
GPGPU-Sim PTX:    immediate post dominator      @  PC=0xa80 (_1.ptx:515) sub.s32 %r17, %r3, 1;
GPGPU-Sim PTX:  6 (potential) branch divergence @  PC=0x9c8 (_1.ptx:485) @!%p5 bra $Lt_3_11778;
GPGPU-Sim PTX:    immediate post dominator      @  PC=0xa30 (_1.ptx:502) add.s32 %r14, %r14, 1;
GPGPU-Sim PTX:  7 (potential) branch divergence @  PC=0xa50 (_1.ptx:506) @%p6 bra $Lt_3_11522;
GPGPU-Sim PTX:    immediate post dominator      @  PC=0xa58 (_1.ptx:507) bra.uni $Lt_3_11010;
GPGPU-Sim PTX:  8 (potential) branch divergence @  PC=0xa58 (_1.ptx:507) bra.uni $Lt_3_11010;
GPGPU-Sim PTX:    immediate post dominator      @  PC=0xa80 (_1.ptx:515) sub.s32 %r17, %r3, 1;
GPGPU-Sim PTX:  9 (potential) branch divergence @  PC=0xa98 (_1.ptx:518) @%p7 bra $Lt_3_12546;
GPGPU-Sim PTX:    immediate post dominator      @  PC=0xc60 (_1.ptx:583) mov.s32 %r22, 0;
GPGPU-Sim PTX: 10 (potential) branch divergence @  PC=0xba0 (_1.ptx:555) @%p8 bra $Lt_3_13314;
GPGPU-Sim PTX:    immediate post dominator      @  PC=0xc20 (_1.ptx:574) sub.s32 %r6, %r6, 1;
GPGPU-Sim PTX: 11 (potential) branch divergence @  PC=0xc58 (_1.ptx:581) @%p9 bra $Lt_3_13058;
GPGPU-Sim PTX:    immediate post dominator      @  PC=0xc60 (_1.ptx:583) mov.s32 %r22, 0;
GPGPU-Sim PTX: 12 (potential) branch divergence @  PC=0xc70 (_1.ptx:585) @!%p10 bra $Lt_3_18178;
GPGPU-Sim PTX:    immediate post dominator      @  PC=0xd18 (_1.ptx:612) mul.f32 %f10, %f10, %f3;
GPGPU-Sim PTX: 13 (potential) branch divergence @  PC=0xd00 (_1.ptx:606) @%p11 bra $Lt_3_14594;
GPGPU-Sim PTX:    immediate post dominator      @  PC=0xd08 (_1.ptx:607) bra.uni $Lt_3_14082;
GPGPU-Sim PTX: 14 (potential) branch divergence @  PC=0xd08 (_1.ptx:607) bra.uni $Lt_3_14082;
GPGPU-Sim PTX:    immediate post dominator      @  PC=0xd18 (_1.ptx:612) mul.f32 %f10, %f10, %f3;
GPGPU-Sim PTX: 15 (potential) branch divergence @  PC=0xd20 (_1.ptx:613) @!%p10 bra $Lt_3_15106;
GPGPU-Sim PTX:    immediate post dominator      @  PC=0xdd8 (_1.ptx:641) mov.s32 %r14, %r1;
GPGPU-Sim PTX: 16 (potential) branch divergence @  PC=0xdd0 (_1.ptx:638) @%p12 bra $Lt_3_15618;
GPGPU-Sim PTX:    immediate post dominator      @  PC=0xdd8 (_1.ptx:641) mov.s32 %r14, %r1;
GPGPU-Sim PTX: 17 (potential) branch divergence @  PC=0xde8 (_1.ptx:643) @%p13 bra $Lt_3_16130;
GPGPU-Sim PTX:    immediate post dominator      @  PC=0xe50 (_1.ptx:661) mov.f32 %f54, %f10;
GPGPU-Sim PTX: 18 (potential) branch divergence @  PC=0xe48 (_1.ptx:658) @%p14 bra $Lt_3_16642;
GPGPU-Sim PTX:    immediate post dominator      @  PC=0xe50 (_1.ptx:661) mov.f32 %f54, %f10;
GPGPU-Sim PTX: ... end of reconvergence points for _Z11portfolio_bPfS_
GPGPU-Sim PTX: ... done pre-decoding instructions for '_Z11portfolio_bPfS_'.
GPGPU-Sim PTX: allocating stack frame region for .local "__cuda___cuda_local_var_33564_27_non_const_B_01080" from 0x80 to 0x120
GPGPU-Sim PTX: allocating stack frame region for .local "__cuda___cuda_local_var_33564_34_non_const_S_1601240" from 0x180 to 0x220
GPGPU-Sim PTX: instruction assembly for function '_Z9portfolioPf'...   done.
GPGPU-Sim PTX: finding reconvergence points for '_Z9portfolioPf'...
GPGPU-Sim PTX: Finding dominators for '_Z9portfolioPf'...
GPGPU-Sim PTX: Finding immediate dominators for '_Z9portfolioPf'...
GPGPU-Sim PTX: Finding postdominators for '_Z9portfolioPf'...
GPGPU-Sim PTX: Finding immediate postdominators for '_Z9portfolioPf'...
GPGPU-Sim PTX: pre-decoding instructions for '_Z9portfolioPf'...
GPGPU-Sim PTX: reconvergence points for _Z9portfolioPf...
GPGPU-Sim PTX:  1 (potential) branch divergence @  PC=0xe90 (_1.ptx:684) @%p1 bra $Lt_4_4098;
GPGPU-Sim PTX:    immediate post dominator      @  PC=0xf90 (_1.ptx:723) cvta.local.u64 %rd3, __cuda___cuda_local_var_33564_27_non_const_B_01080;
GPGPU-Sim PTX:  2 (potential) branch divergence @  PC=0xf88 (_1.ptx:721) @%p2 bra $Lt_4_4610;
GPGPU-Sim PTX:    immediate post dominator      @  PC=0xf90 (_1.ptx:723) cvta.local.u64 %rd3, __cuda___cuda_local_var_33564_27_non_const_B_01080;
GPGPU-Sim PTX:  3 (potential) branch divergence @  PC=0xfb8 (_1.ptx:728) @%p3 bra $Lt_4_7426;
GPGPU-Sim PTX:    immediate post dominator      @  PC=0x10d0 (_1.ptx:769) mov.u32 %r13, 0;
GPGPU-Sim PTX:  4 (potential) branch divergence @  PC=0x10b8 (_1.ptx:764) @%p5 bra $Lt_4_5634;
GPGPU-Sim PTX:    immediate post dominator      @  PC=0x10c0 (_1.ptx:765) bra.uni $Lt_4_5122;
GPGPU-Sim PTX:  5 (potential) branch divergence @  PC=0x10c0 (_1.ptx:765) bra.uni $Lt_4_5122;
GPGPU-Sim PTX:    immediate post dominator      @  PC=0x10d0 (_1.ptx:769) mov.u32 %r13, 0;
GPGPU-Sim PTX:  6 (potential) branch divergence @  PC=0x10e0 (_1.ptx:771) @%p6 bra $Lt_4_7682;
GPGPU-Sim PTX:    immediate post dominator      @  PC=0x1188 (_1.ptx:798) mul.f32 %f16, %f6, %f3;
GPGPU-Sim PTX:  7 (potential) branch divergence @  PC=0x1170 (_1.ptx:792) @%p7 bra $Lt_4_6658;
GPGPU-Sim PTX:    immediate post dominator      @  PC=0x1178 (_1.ptx:793) bra.uni $Lt_4_6146;
GPGPU-Sim PTX:  8 (potential) branch divergence @  PC=0x1178 (_1.ptx:793) bra.uni $Lt_4_6146;
GPGPU-Sim PTX:    immediate post dominator      @  PC=0x1188 (_1.ptx:798) mul.f32 %f16, %f6, %f3;
GPGPU-Sim PTX: ... end of reconvergence points for _Z9portfolioPf
GPGPU-Sim PTX: ... done pre-decoding instructions for '_Z9portfolioPf'.
GPGPU-Sim PTX: allocating stack frame region for .local "__cuda___cuda_local_var_33501_32_non_const_S_b_161416" from 0x0 to 0xa0
GPGPU-Sim PTX: allocating stack frame region for .local "__cuda___cuda_local_var_33501_16_non_const_S_1761576" from 0x100 to 0x1a0
GPGPU-Sim PTX: allocating stack frame region for .local "__cuda___cuda_local_var_33602_16_non_const_L2_3361736" from 0x200 to 0x3540
GPGPU-Sim PTX: allocating stack frame region for .local "__cuda___cuda_local_var_33501_23_non_const_B_b_1345614856" from 0x3580 to 0x3620
GPGPU-Sim PTX: allocating stack frame region for .local "__cuda___cuda_local_var_33501_9_non_const_B_1361615016" from 0x3680 to 0x3720
GPGPU-Sim PTX: allocating stack frame region for .local "__cuda___cuda_local_var_33602_26_non_const_z_1377615176" from 0x3780 to 0x38c0
GPGPU-Sim PTX: allocating stack frame region for .local "__cuda___cuda_local_var_33602_9_non_const_L_1409615496" from 0x3900 to 0x3a40
GPGPU-Sim PTX: instruction assembly for function '_Z28Pathcalc_Portfolio_KernelGPUPfS_'...   done.
GPGPU-Sim PTX: finding reconvergence points for '_Z28Pathcalc_Portfolio_KernelGPUPfS_'...
GPGPU-Sim PTX: Finding dominators for '_Z28Pathcalc_Portfolio_KernelGPUPfS_'...
GPGPU-Sim PTX: Finding immediate dominators for '_Z28Pathcalc_Portfolio_KernelGPUPfS_'...
GPGPU-Sim PTX: Finding postdominators for '_Z28Pathcalc_Portfolio_KernelGPUPfS_'...
GPGPU-Sim PTX: Finding immediate postdominators for '_Z28Pathcalc_Portfolio_KernelGPUPfS_'...
GPGPU-Sim PTX: pre-decoding instructions for '_Z28Pathcalc_Portfolio_KernelGPUPfS_'...
GPGPU-Sim PTX: reconvergence points for _Z28Pathcalc_Portfolio_KernelGPUPfS_...
GPGPU-Sim PTX:  1 (potential) branch divergence @  PC=0x11e0 (_1.ptx:831) @%p1 bra $Lt_5_16130;
GPGPU-Sim PTX:    immediate post dominator      @  PC=0x1e48 (_1.ptx:1310) exit;
GPGPU-Sim PTX:  2 (potential) branch divergence @  PC=0x1320 (_1.ptx:873) @!%p2 bra $Lt_5_17922;
GPGPU-Sim PTX:    immediate post dominator      @  PC=0x1400 (_1.ptx:911) @!%p3 bra $Lt_5_18946;
GPGPU-Sim PTX:  3 (potential) branch divergence @  PC=0x1390 (_1.ptx:891) @%p9 bra $Lt_5_17410;
GPGPU-Sim PTX:    immediate post dominator      @  PC=0x1398 (_1.ptx:894) @!%p2 bra $Lt_5_17922;
GPGPU-Sim PTX:  4 (potential) branch divergence @  PC=0x1398 (_1.ptx:894) @!%p2 bra $Lt_5_17922;
GPGPU-Sim PTX:    immediate post dominator      @  PC=0x1400 (_1.ptx:911) @!%p3 bra $Lt_5_18946;
GPGPU-Sim PTX:  5 (potential) branch divergence @  PC=0x13f8 (_1.ptx:909) @%p10 bra $Lt_5_18434;
GPGPU-Sim PTX:    immediate post dominator      @  PC=0x1400 (_1.ptx:911) @!%p3 bra $Lt_5_18946;
GPGPU-Sim PTX:  6 (potential) branch divergence @  PC=0x1400 (_1.ptx:911) @!%p3 bra $Lt_5_18946;
GPGPU-Sim PTX:    immediate post dominator      @  PC=0x1610 (_1.ptx:989) @!%p6 bra $Lt_5_22018;
GPGPU-Sim PTX:  7 (potential) branch divergence @  PC=0x1438 (_1.ptx:921) @%p11 bra $Lt_5_19714;
GPGPU-Sim PTX:    immediate post dominator      @  PC=0x15f8 (_1.ptx:984) mov.s32 %r29, %r31;
GPGPU-Sim PTX:  8 (potential) branch divergence @  PC=0x15f0 (_1.ptx:982) @%p12 bra $Lt_5_20226;
GPGPU-Sim PTX:    immediate post dominator      @  PC=0x15f8 (_1.ptx:984) mov.s32 %r29, %r31;
GPGPU-Sim PTX:  9 (potential) branch divergence @  PC=0x1608 (_1.ptx:986) @%p13 bra $Lt_5_19458;
GPGPU-Sim PTX:    immediate post dominator      @  PC=0x1610 (_1.ptx:989) @!%p6 bra $Lt_5_22018;
GPGPU-Sim PTX: 10 (potential) branch divergence @  PC=0x1610 (_1.ptx:989) @!%p6 bra $Lt_5_22018;
GPGPU-Sim PTX:    immediate post dominator      @  PC=0x1770 (_1.ptx:1045) @!%p4 bra $Lt_5_33282;
GPGPU-Sim PTX: 11 (potential) branch divergence @  PC=0x16f0 (_1.ptx:1023) @%p14 bra $Lt_5_21506;
GPGPU-Sim PTX:    immediate post dominator      @  PC=0x16f8 (_1.ptx:1025) @!%p6 bra $Lt_5_22018;
GPGPU-Sim PTX: 12 (potential) branch divergence @  PC=0x16f8 (_1.ptx:1025) @!%p6 bra $Lt_5_22018;
GPGPU-Sim PTX:    immediate post dominator      @  PC=0x1770 (_1.ptx:1045) @!%p4 bra $Lt_5_33282;
GPGPU-Sim PTX: 13 (potential) branch divergence @  PC=0x1768 (_1.ptx:1043) @%p15 bra $Lt_5_22530;
GPGPU-Sim PTX:    immediate post dominator      @  PC=0x1770 (_1.ptx:1045) @!%p4 bra $Lt_5_33282;
GPGPU-Sim PTX: 14 (potential) branch divergence @  PC=0x1770 (_1.ptx:1045) @!%p4 bra $Lt_5_33282;
GPGPU-Sim PTX:    immediate post dominator      @  PC=0x18c0 (_1.ptx:1096) @!%p8 bra $Lt_5_24578;
GPGPU-Sim PTX: 15 (potential) branch divergence @  PC=0x1820 (_1.ptx:1070) @!%p16 bra $Lt_5_23810;
GPGPU-Sim PTX:    immediate post dominator      @  PC=0x1888 (_1.ptx:1087) add.s32 %r46, %r46, 1;
GPGPU-Sim PTX: 16 (potential) branch divergence @  PC=0x18a8 (_1.ptx:1091) @%p17 bra $Lt_5_23554;
GPGPU-Sim PTX:    immediate post dominator      @  PC=0x18b0 (_1.ptx:1092) bra.uni $Lt_5_23042;
GPGPU-Sim PTX: 17 (potential) branch divergence @  PC=0x18b0 (_1.ptx:1092) bra.uni $Lt_5_23042;
GPGPU-Sim PTX:    immediate post dominator      @  PC=0x18c0 (_1.ptx:1096) @!%p8 bra $Lt_5_24578;
GPGPU-Sim PTX: 18 (potential) branch divergence @  PC=0x18c0 (_1.ptx:1096) @!%p8 bra $Lt_5_24578;
GPGPU-Sim PTX:    immediate post dominator      @  PC=0x1a58 (_1.ptx:1155) @!%p3 bra $Lt_5_33794;
GPGPU-Sim PTX: 19 (potential) branch divergence @  PC=0x19b8 (_1.ptx:1131) @%p18 bra $Lt_5_25346;
GPGPU-Sim PTX:    immediate post dominator      @  PC=0x1a20 (_1.ptx:1147) sub.s32 %r40, %r40, 1;
GPGPU-Sim PTX: 20 (potential) branch divergence @  PC=0x1a50 (_1.ptx:1153) @%p19 bra $Lt_5_25090;
GPGPU-Sim PTX:    immediate post dominator      @  PC=0x1a58 (_1.ptx:1155) @!%p3 bra $Lt_5_33794;
GPGPU-Sim PTX: 21 (potential) branch divergence @  PC=0x1a58 (_1.ptx:1155) @!%p3 bra $Lt_5_33794;
GPGPU-Sim PTX:    immediate post dominator      @  PC=0x1b00 (_1.ptx:1182) mul.f32 %f30, %f30, %f24;
GPGPU-Sim PTX: 22 (potential) branch divergence @  PC=0x1ae8 (_1.ptx:1176) @%p20 bra $Lt_5_26626;
GPGPU-Sim PTX:    immediate post dominator      @  PC=0x1af0 (_1.ptx:1177) bra.uni $Lt_5_26114;
GPGPU-Sim PTX: 23 (potential) branch divergence @  PC=0x1af0 (_1.ptx:1177) bra.uni $Lt_5_26114;
GPGPU-Sim PTX:    immediate post dominator      @  PC=0x1b00 (_1.ptx:1182) mul.f32 %f30, %f30, %f24;
GPGPU-Sim PTX: 24 (potential) branch divergence @  PC=0x1b08 (_1.ptx:1183) @!%p3 bra $Lt_5_27138;
GPGPU-Sim PTX:    immediate post dominator      @  PC=0x1bb0 (_1.ptx:1209) mov.s32 %r46, %r10;
GPGPU-Sim PTX: 25 (potential) branch divergence @  PC=0x1ba8 (_1.ptx:1206) @%p21 bra $Lt_5_27650;
GPGPU-Sim PTX:    immediate post dominator      @  PC=0x1bb0 (_1.ptx:1209) mov.s32 %r46, %r10;
GPGPU-Sim PTX: 26 (potential) branch divergence @  PC=0x1bb8 (_1.ptx:1210) @!%p5 bra $Lt_5_28162;
GPGPU-Sim PTX:    immediate post dominator      @  PC=0x1c20 (_1.ptx:1228) st.global.f32 [%rd5+0], %f30;
GPGPU-Sim PTX: 27 (potential) branch divergence @  PC=0x1c18 (_1.ptx:1225) @%p22 bra $Lt_5_28674;
GPGPU-Sim PTX:    immediate post dominator      @  PC=0x1c20 (_1.ptx:1228) st.global.f32 [%rd5+0], %f30;
GPGPU-Sim PTX: 28 (potential) branch divergence @  PC=0x1c30 (_1.ptx:1231) @!%p7 bra $Lt_5_29186;
GPGPU-Sim PTX:    immediate post dominator      @  PC=0x1e08 (_1.ptx:1300) ld.local.f32 %f85, [__cuda___cuda_local_var_33602_9_non_const_L_1409615496+316];
GPGPU-Sim PTX: 29 (potential) branch divergence @  PC=0x1c58 (_1.ptx:1238) @%p23 bra $Lt_5_29954;
GPGPU-Sim PTX:    immediate post dominator      @  PC=0x1de8 (_1.ptx:1294) sub.s32 %r57, %r57, 1;
GPGPU-Sim PTX: 30 (potential) branch divergence @  PC=0x1de0 (_1.ptx:1292) @%p24 bra $Lt_5_30466;
GPGPU-Sim PTX:    immediate post dominator      @  PC=0x1de8 (_1.ptx:1294) sub.s32 %r57, %r57, 1;
GPGPU-Sim PTX: 31 (potential) branch divergence @  PC=0x1e00 (_1.ptx:1297) @%p25 bra $Lt_5_29698;
GPGPU-Sim PTX:    immediate post dominator      @  PC=0x1e08 (_1.ptx:1300) ld.local.f32 %f85, [__cuda___cuda_local_var_33602_9_non_const_L_1409615496+316];
GPGPU-Sim PTX: 32 (potential) branch divergence @  PC=0x1e40 (_1.ptx:1307) @%p26 bra $Lt_5_16642;
GPGPU-Sim PTX:    immediate post dominator      @  PC=0x1e48 (_1.ptx:1310) exit;
GPGPU-Sim PTX: ... end of reconvergence points for _Z28Pathcalc_Portfolio_KernelGPUPfS_
GPGPU-Sim PTX: ... done pre-decoding instructions for '_Z28Pathcalc_Portfolio_KernelGPUPfS_'.
GPGPU-Sim PTX: allocating stack frame region for .local "__cuda___cuda_local_var_33564_27_non_const_B_1615824" from 0x0 to 0xa0
GPGPU-Sim PTX: allocating stack frame region for .local "__cuda___cuda_local_var_33628_9_non_const_L_17615984" from 0x100 to 0x240
GPGPU-Sim PTX: allocating stack frame region for .local "__cuda___cuda_local_var_33564_34_non_const_S_49616304" from 0x280 to 0x320
GPGPU-Sim PTX: allocating stack frame region for .local "__cuda___cuda_local_var_33628_16_non_const_z_65616464" from 0x380 to 0x4c0
GPGPU-Sim PTX: instruction assembly for function '_Z29Pathcalc_Portfolio_KernelGPU2Pf'...   done.
GPGPU-Sim PTX: finding reconvergence points for '_Z29Pathcalc_Portfolio_KernelGPU2Pf'...
GPGPU-Sim PTX: Finding dominators for '_Z29Pathcalc_Portfolio_KernelGPU2Pf'...
GPGPU-Sim PTX: Finding immediate dominators for '_Z29Pathcalc_Portfolio_KernelGPU2Pf'...
GPGPU-Sim PTX: Finding postdominators for '_Z29Pathcalc_Portfolio_KernelGPU2Pf'...
GPGPU-Sim PTX: Finding immediate postdominators for '_Z29Pathcalc_Portfolio_KernelGPU2Pf'...
GPGPU-Sim PTX: pre-decoding instructions for '_Z29Pathcalc_Portfolio_KernelGPU2Pf'...
GPGPU-Sim PTX: reconvergence points for _Z29Pathcalc_Portfolio_KernelGPU2Pf...
GPGPU-Sim PTX:  1 (potential) branch divergence @  PC=0x1e90 (_1.ptx:1337) @%p1 bra $Lt_6_8194;
GPGPU-Sim PTX:    immediate post dominator      @  PC=0x2498 (_1.ptx:1571) exit;
GPGPU-Sim PTX:  2 (potential) branch divergence @  PC=0x1f60 (_1.ptx:1365) @!%p2 bra $Lt_6_8962;
GPGPU-Sim PTX:    immediate post dominator      @  PC=0x1fd8 (_1.ptx:1386) @!%p3 bra $Lt_6_9986;
GPGPU-Sim PTX:  3 (potential) branch divergence @  PC=0x1fd0 (_1.ptx:1383) @%p6 bra $Lt_6_9474;
GPGPU-Sim PTX:    immediate post dominator      @  PC=0x1fd8 (_1.ptx:1386) @!%p3 bra $Lt_6_9986;
GPGPU-Sim PTX:  4 (potential) branch divergence @  PC=0x1fd8 (_1.ptx:1386) @!%p3 bra $Lt_6_9986;
GPGPU-Sim PTX:    immediate post dominator      @  PC=0x21b0 (_1.ptx:1456) @!%p4 bra $Lt_6_12034;
GPGPU-Sim PTX:  5 (potential) branch divergence @  PC=0x2010 (_1.ptx:1396) @%p7 bra $Lt_6_10754;
GPGPU-Sim PTX:    immediate post dominator      @  PC=0x2198 (_1.ptx:1451) mov.s32 %r20, %r22;
GPGPU-Sim PTX:  6 (potential) branch divergence @  PC=0x2190 (_1.ptx:1449) @%p8 bra $Lt_6_11266;
GPGPU-Sim PTX:    immediate post dominator      @  PC=0x2198 (_1.ptx:1451) mov.s32 %r20, %r22;
GPGPU-Sim PTX:  7 (potential) branch divergence @  PC=0x21a8 (_1.ptx:1453) @%p9 bra $Lt_6_10498;
GPGPU-Sim PTX:    immediate post dominator      @  PC=0x21b0 (_1.ptx:1456) @!%p4 bra $Lt_6_12034;
GPGPU-Sim PTX:  8 (potential) branch divergence @  PC=0x21b0 (_1.ptx:1456) @!%p4 bra $Lt_6_12034;
GPGPU-Sim PTX:    immediate post dominator      @  PC=0x22a0 (_1.ptx:1493) @!%p5 bra $Lt_6_16642;
GPGPU-Sim PTX:  9 (potential) branch divergence @  PC=0x2298 (_1.ptx:1491) @%p10 bra $Lt_6_12546;
GPGPU-Sim PTX:    immediate post dominator      @  PC=0x22a0 (_1.ptx:1493) @!%p5 bra $Lt_6_16642;
GPGPU-Sim PTX: 10 (potential) branch divergence @  PC=0x22a0 (_1.ptx:1493) @!%p5 bra $Lt_6_16642;
GPGPU-Sim PTX:    immediate post dominator      @  PC=0x23b8 (_1.ptx:1534) @!%p3 bra $Lt_6_16898;
GPGPU-Sim PTX: 11 (potential) branch divergence @  PC=0x23a0 (_1.ptx:1529) @%p12 bra $Lt_6_13570;
GPGPU-Sim PTX:    immediate post dominator      @  PC=0x23a8 (_1.ptx:1530) bra.uni $Lt_6_13058;
GPGPU-Sim PTX: 12 (potential) branch divergence @  PC=0x23a8 (_1.ptx:1530) bra.uni $Lt_6_13058;
GPGPU-Sim PTX:    immediate post dominator      @  PC=0x23b8 (_1.ptx:1534) @!%p3 bra $Lt_6_16898;
GPGPU-Sim PTX: 13 (potential) branch divergence @  PC=0x23b8 (_1.ptx:1534) @!%p3 bra $Lt_6_16898;
GPGPU-Sim PTX:    immediate post dominator      @  PC=0x2460 (_1.ptx:1561) mul.f32 %f25, %f25, %f22;
GPGPU-Sim PTX: 14 (potential) branch divergence @  PC=0x2448 (_1.ptx:1555) @%p13 bra $Lt_6_14594;
GPGPU-Sim PTX:    immediate post dominator      @  PC=0x2450 (_1.ptx:1556) bra.uni $Lt_6_14082;
GPGPU-Sim PTX: 15 (potential) branch divergence @  PC=0x2450 (_1.ptx:1556) bra.uni $Lt_6_14082;
GPGPU-Sim PTX:    immediate post dominator      @  PC=0x2460 (_1.ptx:1561) mul.f32 %f25, %f25, %f22;
GPGPU-Sim PTX: 16 (potential) branch divergence @  PC=0x2490 (_1.ptx:1568) @%p14 bra $Lt_6_8706;
GPGPU-Sim PTX:    immediate post dominator      @  PC=0x2498 (_1.ptx:1571) exit;
GPGPU-Sim PTX: ... end of reconvergence points for _Z29Pathcalc_Portfolio_KernelGPU2Pf
GPGPU-Sim PTX: ... done pre-decoding instructions for '_Z29Pathcalc_Portfolio_KernelGPU2Pf'.
GPGPU-Sim PTX: finished parsing EMBEDDED .ptx file _1.ptx
Adding _cuobjdump_1.ptx with cubin handle 1
GPGPU-Sim PTX: extracting embedded .ptx to temporary file "_ptx_Wne9Uz"
Running: cat _ptx_Wne9Uz | sed 's/.version 1.5/.version 1.4/' | sed 's/, texmode_independent//' | sed 's/\(\.extern \.const\[1\] .b8 \w\+\)\[\]/\1\[1\]/' | sed 's/const\[.\]/const\[0\]/g' > _ptx2_4Ghhgn
GPGPU-Sim PTX: generating ptxinfo using "$CUDA_INSTALL_PATH/bin/ptxas --gpu-name=sm_20 -v _ptx2_4Ghhgn --output-file  /dev/null 2> _ptx_Wne9Uzinfo"
GPGPU-Sim PTX: Kernel '_Z29Pathcalc_Portfolio_KernelGPU2Pf' : regs=33, lmem=4, smem=0, cmem=508
GPGPU-Sim PTX: Kernel '_Z28Pathcalc_Portfolio_KernelGPUPfS_' : regs=41, lmem=4, smem=0, cmem=516
GPGPU-Sim PTX: removing ptxinfo using "rm -f _ptx_Wne9Uz _ptx2_4Ghhgn _ptx_Wne9Uzinfo"
GPGPU-Sim PTX: loading globals with explicit initializers... 
GPGPU-Sim PTX: finished loading globals (0 bytes total).
GPGPU-Sim PTX: loading constants with explicit initializers...  done.
GPGPU-Sim PTX: __cudaRegisterFunction _Z28Pathcalc_Portfolio_KernelGPUPfS_ : hostFun 0x0x40501e, fat_cubin_handle = 1
GPGPU-Sim PTX: __cudaRegisterVar: hostVar = 0x629400; deviceAddress = N; deviceName = N
GPGPU-Sim PTX: __cudaRegisterVar: Registering const memory space of 4 bytes
GPGPU-Sim PTX registering constant N (4 bytes) to name mapping
GPGPU-Sim PTX: __cudaRegisterVar: hostVar = 0x629404; deviceAddress = Nmat; deviceName = Nmat
GPGPU-Sim PTX: __cudaRegisterVar: Registering const memory space of 4 bytes
GPGPU-Sim PTX registering constant Nmat (4 bytes) to name mapping
GPGPU-Sim PTX: __cudaRegisterVar: hostVar = 0x629408; deviceAddress = Nopt; deviceName = Nopt
GPGPU-Sim PTX: __cudaRegisterVar: Registering const memory space of 4 bytes
GPGPU-Sim PTX registering constant Nopt (4 bytes) to name mapping
GPGPU-Sim PTX: __cudaRegisterVar: hostVar = 0x629420; deviceAddress = maturities; deviceName = maturities
GPGPU-Sim PTX: __cudaRegisterVar: Registering const memory space of 60 bytes
GPGPU-Sim PTX registering constant maturities (60 bytes) to name mapping
GPGPU-Sim PTX: __cudaRegisterVar: hostVar = 0x62945c; deviceAddress = delta; deviceName = delta
GPGPU-Sim PTX: __cudaRegisterVar: Registering const memory space of 4 bytes
GPGPU-Sim PTX registering constant delta (4 bytes) to name mapping
GPGPU-Sim PTX: __cudaRegisterVar: hostVar = 0x629460; deviceAddress = swaprates; deviceName = swaprates
GPGPU-Sim PTX: __cudaRegisterVar: Registering const memory space of 60 bytes
GPGPU-Sim PTX registering constant swaprates (60 bytes) to name mapping
GPGPU-Sim PTX: __cudaRegisterVar: hostVar = 0x6294a0; deviceAddress = lambda; deviceName = lambda
GPGPU-Sim PTX: __cudaRegisterVar: Registering const memory space of 320 bytes
GPGPU-Sim PTX registering constant lambda (320 bytes) to name mapping
GPGPU-Sim PTX: cudaMemcpyToSymbol: symbol = 0x629400
GPGPU-Sim PTX: starting gpgpu_ptx_sim_memcpy_symbol with hostVar 0x0x629400
GPGPU-Sim PTX: gpgpu_ptx_sim_memcpy_symbol: Found PTX symbol w/ hostVar=0x629400
GPGPU-Sim PTX: gpgpu_ptx_sim_memcpy_symbol: copying const memory 4 bytes  to  symbol N+0 @0x100 ...
GPGPU-Sim PTX: cudaMemcpyToSymbol: symbol = 0x629404
GPGPU-Sim PTX: starting gpgpu_ptx_sim_memcpy_symbol with hostVar 0x0x629404
GPGPU-Sim PTX: gpgpu_ptx_sim_memcpy_symbol: Found PTX symbol w/ hostVar=0x629404
GPGPU-Sim PTX: gpgpu_ptx_sim_memcpy_symbol: copying const memory 4 bytes  to  symbol Nmat+0 @0x104 ...
GPGPU-Sim PTX: cudaMemcpyToSymbol: symbol = 0x629408
GPGPU-Sim PTX: starting gpgpu_ptx_sim_memcpy_symbol with hostVar 0x0x629408
GPGPU-Sim PTX: gpgpu_ptx_sim_memcpy_symbol: Found PTX symbol w/ hostVar=0x629408
GPGPU-Sim PTX: gpgpu_ptx_sim_memcpy_symbol: copying const memory 4 bytes  to  symbol Nopt+0 @0x2c0 ...
GPGPU-Sim PTX: cudaMemcpyToSymbol: symbol = 0x62945c
GPGPU-Sim PTX: starting gpgpu_ptx_sim_memcpy_symbol with hostVar 0x0x62945c
GPGPU-Sim PTX: gpgpu_ptx_sim_memcpy_symbol: Found PTX symbol w/ hostVar=0x62945c
GPGPU-Sim PTX: gpgpu_ptx_sim_memcpy_symbol: copying const memory 4 bytes  to  symbol delta+0 @0x108 ...
GPGPU-Sim PTX: cudaMemcpyToSymbol: symbol = 0x629420
GPGPU-Sim PTX: starting gpgpu_ptx_sim_memcpy_symbol with hostVar 0x0x629420
GPGPU-Sim PTX: gpgpu_ptx_sim_memcpy_symbol: Found PTX symbol w/ hostVar=0x629420
GPGPU-Sim PTX: gpgpu_ptx_sim_memcpy_symbol: copying const memory 60 bytes  to  symbol maturities+0 @0x300 ...
GPGPU-Sim PTX: cudaMemcpyToSymbol: symbol = 0x629460
GPGPU-Sim PTX: starting gpgpu_ptx_sim_memcpy_symbol with hostVar 0x0x629460
GPGPU-Sim PTX: gpgpu_ptx_sim_memcpy_symbol: Found PTX symbol w/ hostVar=0x629460
GPGPU-Sim PTX: gpgpu_ptx_sim_memcpy_symbol: copying const memory 60 bytes  to  symbol swaprates+0 @0x380 ...
GPGPU-Sim PTX: cudaMemcpyToSymbol: symbol = 0x6294a0
GPGPU-Sim PTX: starting gpgpu_ptx_sim_memcpy_symbol with hostVar 0x0x6294a0
GPGPU-Sim PTX: gpgpu_ptx_sim_memcpy_symbol: Found PTX symbol w/ hostVar=0x6294a0
GPGPU-Sim PTX: gpgpu_ptx_sim_memcpy_symbol: copying const memory 320 bytes  to  symbol lambda+0 @0x180 ...
GPGPU-Sim: synchronize waiting for inactive GPU simulation
GPGPU-Sim API: Stream Manager State
GPGPU-Sim: detected inactive GPU simulation thread

GPGPU-Sim PTX: cudaLaunch for 0x0x40508c (mode=performance simulation) on stream 0
GPGPU-Sim PTX: pushing kernel '_Z29Pathcalc_Portfolio_KernelGPU2Pf' to stream 0, gridDim= (64,1,1) blockDim = (64,1,1) 
kernel '_Z29Pathcalc_Portfolio_KernelGPU2Pf' transfer to GPU hardware scheduler
GPGPU-Sim uArch: Shader 1 bind to kernel 1 '_Z29Pathcalc_Portfolio_KernelGPU2Pf'
GPGPU-Sim uArch: CTA/core = 8, limited by: cta_limit
GPGPU-Sim uArch: core:  1, cta: 0 initialized @(1,0)
GPGPU-Sim uArch: Shader 2 bind to kernel 1 '_Z29Pathcalc_Portfolio_KernelGPU2Pf'
GPGPU-Sim uArch: core:  2, cta: 0 initialized @(1,0)
GPGPU-Sim uArch: Shader 3 bind to kernel 1 '_Z29Pathcalc_Portfolio_KernelGPU2Pf'
GPGPU-Sim uArch: core:  3, cta: 0 initialized @(1,0)
GPGPU-Sim uArch: Shader 4 bind to kernel 1 '_Z29Pathcalc_Portfolio_KernelGPU2Pf'
GPGPU-Sim uArch: core:  4, cta: 0 initialized @(1,0)
GPGPU-Sim uArch: Shader 5 bind to kernel 1 '_Z29Pathcalc_Portfolio_KernelGPU2Pf'
GPGPU-Sim uArch: core:  5, cta: 0 initialized @(1,0)
GPGPU-Sim uArch: Shader 6 bind to kernel 1 '_Z29Pathcalc_Portfolio_KernelGPU2Pf'
GPGPU-Sim uArch: core:  6, cta: 0 initialized @(1,0)
GPGPU-Sim uArch: Shader 7 bind to kernel 1 '_Z29Pathcalc_Portfolio_KernelGPU2Pf'
GPGPU-Sim uArch: core:  7, cta: 0 initialized @(1,0)
GPGPU-Sim uArch: Shader 8 bind to kernel 1 '_Z29Pathcalc_Portfolio_KernelGPU2Pf'
GPGPU-Sim uArch: core:  8, cta: 0 initialized @(1,0)
GPGPU-Sim uArch: Shader 9 bind to kernel 1 '_Z29Pathcalc_Portfolio_KernelGPU2Pf'
GPGPU-Sim uArch: core:  9, cta: 0 initialized @(1,0)
GPGPU-Sim uArch: Shader 10 bind to kernel 1 '_Z29Pathcalc_Portfolio_KernelGPU2Pf'
GPGPU-Sim uArch: core: 10, cta: 0 initialized @(1,0)
GPGPU-Sim uArch: Shader 11 bind to kernel 1 '_Z29Pathcalc_Portfolio_KernelGPU2Pf'
GPGPU-Sim uArch: core: 11, cta: 0 initialized @(1,0)
GPGPU-Sim uArch: Shader 12 bind to kernel 1 '_Z29Pathcalc_Portfolio_KernelGPU2Pf'
GPGPU-Sim uArch: core: 12, cta: 0 initialized @(1,0)
GPGPU-Sim uArch: Shader 13 bind to kernel 1 '_Z29Pathcalc_Portfolio_KernelGPU2Pf'
GPGPU-Sim uArch: core: 13, cta: 0 initialized @(1,0)
GPGPU-Sim uArch: Shader 14 bind to kernel 1 '_Z29Pathcalc_Portfolio_KernelGPU2Pf'
GPGPU-Sim uArch: core: 14, cta: 0 initialized @(1,0)
GPGPU-Sim uArch: Shader 0 bind to kernel 1 '_Z29Pathcalc_Portfolio_KernelGPU2Pf'
GPGPU-Sim uArch: core:  0, cta: 0 initialized @(1,0)
GPGPU-Sim uArch: core:  1, cta: 1 initialized @(2,0)
GPGPU-Sim uArch: core:  2, cta: 1 initialized @(2,0)
GPGPU-Sim uArch: core:  3, cta: 1 initialized @(2,0)
GPGPU-Sim uArch: core:  4, cta: 1 initialized @(2,0)
GPGPU-Sim uArch: core:  5, cta: 1 initialized @(2,0)
GPGPU-Sim uArch: core:  6, cta: 1 initialized @(2,0)
GPGPU-Sim uArch: core:  7, cta: 1 initialized @(2,0)
GPGPU-Sim uArch: core:  8, cta: 1 initialized @(2,0)
GPGPU-Sim uArch: core:  9, cta: 1 initialized @(2,0)
GPGPU-Sim uArch: core: 10, cta: 1 initialized @(2,0)
GPGPU-Sim uArch: core: 11, cta: 1 initialized @(2,0)
GPGPU-Sim uArch: core: 12, cta: 1 initialized @(2,0)
GPGPU-Sim uArch: core: 13, cta: 1 initialized @(2,0)
GPGPU-Sim uArch: core: 14, cta: 1 initialized @(2,0)
GPGPU-Sim uArch: core:  0, cta: 1 initialized @(2,0)
GPGPU-Sim uArch: core:  1, cta: 2 initialized @(3,0)
GPGPU-Sim uArch: core:  2, cta: 2 initialized @(3,0)
GPGPU-Sim uArch: core:  3, cta: 2 initialized @(3,0)
GPGPU-Sim uArch: core:  4, cta: 2 initialized @(3,0)
GPGPU-Sim uArch: core:  5, cta: 2 initialized @(3,0)
GPGPU-Sim uArch: core:  6, cta: 2 initialized @(3,0)
GPGPU-Sim uArch: core:  7, cta: 2 initialized @(3,0)
GPGPU-Sim uArch: core:  8, cta: 2 initialized @(3,0)
GPGPU-Sim uArch: core:  9, cta: 2 initialized @(3,0)
GPGPU-Sim uArch: core: 10, cta: 2 initialized @(3,0)
GPGPU-Sim uArch: core: 11, cta: 2 initialized @(3,0)
GPGPU-Sim uArch: core: 12, cta: 2 initialized @(3,0)
GPGPU-Sim uArch: core: 13, cta: 2 initialized @(3,0)
GPGPU-Sim uArch: core: 14, cta: 2 initialized @(3,0)
GPGPU-Sim uArch: core:  0, cta: 2 initialized @(3,0)
GPGPU-Sim uArch: core:  1, cta: 3 initialized @(4,0)
GPGPU-Sim uArch: core:  2, cta: 3 initialized @(4,0)
GPGPU-Sim uArch: core:  3, cta: 3 initialized @(4,0)
GPGPU-Sim uArch: core:  4, cta: 3 initialized @(4,0)
GPGPU-Sim uArch: core:  5, cta: 3 initialized @(4,0)
GPGPU-Sim uArch: core:  6, cta: 3 initialized @(4,0)
GPGPU-Sim uArch: core:  7, cta: 3 initialized @(4,0)
GPGPU-Sim uArch: core:  8, cta: 3 initialized @(4,0)
GPGPU-Sim uArch: core:  9, cta: 3 initialized @(4,0)
GPGPU-Sim uArch: core: 10, cta: 3 initialized @(4,0)
GPGPU-Sim uArch: core: 11, cta: 3 initialized @(4,0)
GPGPU-Sim uArch: core: 12, cta: 3 initialized @(4,0)
GPGPU-Sim uArch: core: 13, cta: 3 initialized @(4,0)
GPGPU-Sim uArch: core: 14, cta: 3 initialized @(4,0)
GPGPU-Sim uArch: core:  0, cta: 3 initialized @(4,0)
GPGPU-Sim uArch: core:  1, cta: 4 initialized @(5,0)
GPGPU-Sim uArch: core:  2, cta: 4 initialized @(5,0)
GPGPU-Sim uArch: core:  3, cta: 4 initialized @(5,0)
GPGPU-Sim uArch: core:  4, cta: 4 initialized @(5,0)
GPGPU-Sim uArch: cycles simulated: 500  inst.: 24576 (ipc=49.2) sim_rate=24576 (inst/sec) elapsed = 0:0:00:01 / Tue Apr 16 16:56:31 2019
GPGPU-Sim PTX: 100000 instructions simulated : ctaid=(41,0,0) tid=(31,0,0)
GPGPU-Sim PTX: 200000 instructions simulated : ctaid=(2,0,0) tid=(31,0,0)
GPGPU-Sim uArch: cycles simulated: 2500  inst.: 284864 (ipc=113.9) sim_rate=142432 (inst/sec) elapsed = 0:0:00:02 / Tue Apr 16 16:56:32 2019
GPGPU-Sim PTX: 300000 instructions simulated : ctaid=(0,0,0) tid=(31,0,0)
GPGPU-Sim PTX: 400000 instructions simulated : ctaid=(23,0,0) tid=(31,0,0)
GPGPU-Sim uArch: cycles simulated: 4500  inst.: 441344 (ipc=98.1) sim_rate=147114 (inst/sec) elapsed = 0:0:00:03 / Tue Apr 16 16:56:33 2019
GPGPU-Sim PTX: 500000 instructions simulated : ctaid=(17,0,0) tid=(31,0,0)
GPGPU-Sim PTX: 600000 instructions simulated : ctaid=(5,0,0) tid=(31,0,0)
GPGPU-Sim uArch: cycles simulated: 6500  inst.: 630624 (ipc=97.0) sim_rate=157656 (inst/sec) elapsed = 0:0:00:04 / Tue Apr 16 16:56:34 2019
GPGPU-Sim PTX: 700000 instructions simulated : ctaid=(11,0,0) tid=(31,0,0)
GPGPU-Sim PTX: 800000 instructions simulated : ctaid=(29,0,0) tid=(31,0,0)
GPGPU-Sim uArch: cycles simulated: 8500  inst.: 818176 (ipc=96.3) sim_rate=163635 (inst/sec) elapsed = 0:0:00:05 / Tue Apr 16 16:56:35 2019
GPGPU-Sim PTX: 900000 instructions simulated : ctaid=(16,0,0) tid=(31,0,0)
GPGPU-Sim PTX: 1000000 instructions simulated : ctaid=(17,0,0) tid=(31,0,0)
GPGPU-Sim uArch: cycles simulated: 10500  inst.: 1025536 (ipc=97.7) sim_rate=170922 (inst/sec) elapsed = 0:0:00:06 / Tue Apr 16 16:56:36 2019
GPGPU-Sim PTX: 1100000 instructions simulated : ctaid=(36,0,0) tid=(31,0,0)
GPGPU-Sim PTX: 1200000 instructions simulated : ctaid=(14,0,0) tid=(63,0,0)
GPGPU-Sim uArch: cycles simulated: 12500  inst.: 1220992 (ipc=97.7) sim_rate=174427 (inst/sec) elapsed = 0:0:00:07 / Tue Apr 16 16:56:37 2019
GPGPU-Sim PTX: 1300000 instructions simulated : ctaid=(41,0,0) tid=(31,0,0)
GPGPU-Sim PTX: 1400000 instructions simulated : ctaid=(53,0,0) tid=(31,0,0)
GPGPU-Sim uArch: cycles simulated: 14500  inst.: 1440416 (ipc=99.3) sim_rate=180052 (inst/sec) elapsed = 0:0:00:08 / Tue Apr 16 16:56:38 2019
GPGPU-Sim PTX: 1500000 instructions simulated : ctaid=(59,0,0) tid=(31,0,0)
GPGPU-Sim PTX: 1600000 instructions simulated : ctaid=(63,0,0) tid=(31,0,0)
GPGPU-Sim uArch: cycles simulated: 16000  inst.: 1610080 (ipc=100.6) sim_rate=178897 (inst/sec) elapsed = 0:0:00:09 / Tue Apr 16 16:56:39 2019
GPGPU-Sim PTX: 1700000 instructions simulated : ctaid=(51,0,0) tid=(31,0,0)
GPGPU-Sim PTX: 1800000 instructions simulated : ctaid=(43,0,0) tid=(31,0,0)
GPGPU-Sim uArch: cycles simulated: 18000  inst.: 1851168 (ipc=102.8) sim_rate=185116 (inst/sec) elapsed = 0:0:00:10 / Tue Apr 16 16:56:40 2019
GPGPU-Sim PTX: 1900000 instructions simulated : ctaid=(9,0,0) tid=(63,0,0)
GPGPU-Sim PTX: 2000000 instructions simulated : ctaid=(31,0,0) tid=(31,0,0)
GPGPU-Sim uArch: cycles simulated: 19500  inst.: 2045952 (ipc=104.9) sim_rate=185995 (inst/sec) elapsed = 0:0:00:11 / Tue Apr 16 16:56:41 2019
GPGPU-Sim PTX: 2100000 instructions simulated : ctaid=(59,0,0) tid=(31,0,0)
GPGPU-Sim PTX: 2200000 instructions simulated : ctaid=(33,0,0) tid=(31,0,0)
GPGPU-Sim PTX: 2300000 instructions simulated : ctaid=(38,0,0) tid=(31,0,0)
GPGPU-Sim uArch: cycles simulated: 21500  inst.: 2312192 (ipc=107.5) sim_rate=192682 (inst/sec) elapsed = 0:0:00:12 / Tue Apr 16 16:56:42 2019
GPGPU-Sim PTX: 2400000 instructions simulated : ctaid=(25,0,0) tid=(63,0,0)
GPGPU-Sim PTX: 2500000 instructions simulated : ctaid=(11,0,0) tid=(63,0,0)
GPGPU-Sim uArch: cycles simulated: 23000  inst.: 2511392 (ipc=109.2) sim_rate=193184 (inst/sec) elapsed = 0:0:00:13 / Tue Apr 16 16:56:43 2019
GPGPU-Sim PTX: 2600000 instructions simulated : ctaid=(3,0,0) tid=(63,0,0)
GPGPU-Sim PTX: 2700000 instructions simulated : ctaid=(44,0,0) tid=(63,0,0)
GPGPU-Sim PTX: 2800000 instructions simulated : ctaid=(46,0,0) tid=(63,0,0)
GPGPU-Sim uArch: cycles simulated: 25000  inst.: 2806656 (ipc=112.3) sim_rate=200475 (inst/sec) elapsed = 0:0:00:14 / Tue Apr 16 16:56:44 2019
GPGPU-Sim PTX: 2900000 instructions simulated : ctaid=(28,0,0) tid=(31,0,0)
GPGPU-Sim PTX: 3000000 instructions simulated : ctaid=(34,0,0) tid=(31,0,0)
GPGPU-Sim uArch: cycles simulated: 26500  inst.: 3040832 (ipc=114.7) sim_rate=202722 (inst/sec) elapsed = 0:0:00:15 / Tue Apr 16 16:56:45 2019
GPGPU-Sim PTX: 3100000 instructions simulated : ctaid=(39,0,0) tid=(31,0,0)
GPGPU-Sim PTX: 3200000 instructions simulated : ctaid=(19,0,0) tid=(63,0,0)
GPGPU-Sim PTX: 3300000 instructions simulated : ctaid=(40,0,0) tid=(63,0,0)
GPGPU-Sim uArch: cycles simulated: 28000  inst.: 3285120 (ipc=117.3) sim_rate=205320 (inst/sec) elapsed = 0:0:00:16 / Tue Apr 16 16:56:46 2019
GPGPU-Sim PTX: 3400000 instructions simulated : ctaid=(58,0,0) tid=(63,0,0)
GPGPU-Sim PTX: 3500000 instructions simulated : ctaid=(18,0,0) tid=(31,0,0)
GPGPU-Sim uArch: cycles simulated: 29500  inst.: 3525280 (ipc=119.5) sim_rate=207369 (inst/sec) elapsed = 0:0:00:17 / Tue Apr 16 16:56:47 2019
GPGPU-Sim PTX: 3600000 instructions simulated : ctaid=(33,0,0) tid=(63,0,0)
GPGPU-Sim PTX: 3700000 instructions simulated : ctaid=(17,0,0) tid=(63,0,0)
GPGPU-Sim PTX: 3800000 instructions simulated : ctaid=(4,0,0) tid=(63,0,0)
GPGPU-Sim uArch: cycles simulated: 31000  inst.: 3805952 (ipc=122.8) sim_rate=211441 (inst/sec) elapsed = 0:0:00:18 / Tue Apr 16 16:56:48 2019
GPGPU-Sim PTX: 3900000 instructions simulated : ctaid=(43,0,0) tid=(63,0,0)
GPGPU-Sim PTX: 4000000 instructions simulated : ctaid=(0,0,0) tid=(63,0,0)
GPGPU-Sim PTX: 4100000 instructions simulated : ctaid=(56,0,0) tid=(63,0,0)
GPGPU-Sim uArch: cycles simulated: 32500  inst.: 4167008 (ipc=128.2) sim_rate=219316 (inst/sec) elapsed = 0:0:00:19 / Tue Apr 16 16:56:49 2019
GPGPU-Sim PTX: 4200000 instructions simulated : ctaid=(6,0,0) tid=(31,0,0)
GPGPU-Sim PTX: 4300000 instructions simulated : ctaid=(52,0,0) tid=(31,0,0)
GPGPU-Sim PTX: 4400000 instructions simulated : ctaid=(50,0,0) tid=(63,0,0)
GPGPU-Sim PTX: 4500000 instructions simulated : ctaid=(25,0,0) tid=(31,0,0)
GPGPU-Sim uArch: cycles simulated: 34000  inst.: 4504128 (ipc=132.5) sim_rate=225206 (inst/sec) elapsed = 0:0:00:20 / Tue Apr 16 16:56:50 2019
GPGPU-Sim PTX: 4600000 instructions simulated : ctaid=(57,0,0) tid=(63,0,0)
GPGPU-Sim PTX: 4700000 instructions simulated : ctaid=(40,0,0) tid=(63,0,0)
GPGPU-Sim PTX: 4800000 instructions simulated : ctaid=(17,0,0) tid=(63,0,0)
GPGPU-Sim uArch: cycles simulated: 35500  inst.: 4867232 (ipc=137.1) sim_rate=231772 (inst/sec) elapsed = 0:0:00:21 / Tue Apr 16 16:56:51 2019
GPGPU-Sim PTX: 4900000 instructions simulated : ctaid=(61,0,0) tid=(31,0,0)
GPGPU-Sim PTX: 5000000 instructions simulated : ctaid=(60,0,0) tid=(31,0,0)
GPGPU-Sim PTX: 5100000 instructions simulated : ctaid=(52,0,0) tid=(31,0,0)
GPGPU-Sim PTX: 5200000 instructions simulated : ctaid=(41,0,0) tid=(31,0,0)
GPGPU-Sim uArch: cycles simulated: 37000  inst.: 5237792 (ipc=141.6) sim_rate=238081 (inst/sec) elapsed = 0:0:00:22 / Tue Apr 16 16:56:52 2019
GPGPU-Sim PTX: 5300000 instructions simulated : ctaid=(61,0,0) tid=(31,0,0)
GPGPU-Sim PTX: 5400000 instructions simulated : ctaid=(30,0,0) tid=(31,0,0)
GPGPU-Sim PTX: 5500000 instructions simulated : ctaid=(22,0,0) tid=(31,0,0)
GPGPU-Sim uArch: cycles simulated: 38000  inst.: 5490624 (ipc=144.5) sim_rate=238722 (inst/sec) elapsed = 0:0:00:23 / Tue Apr 16 16:56:53 2019
GPGPU-Sim PTX: 5600000 instructions simulated : ctaid=(2,0,0) tid=(31,0,0)
GPGPU-Sim PTX: 5700000 instructions simulated : ctaid=(53,0,0) tid=(31,0,0)
GPGPU-Sim PTX: 5800000 instructions simulated : ctaid=(52,0,0) tid=(31,0,0)
GPGPU-Sim uArch: cycles simulated: 39500  inst.: 5856064 (ipc=148.3) sim_rate=244002 (inst/sec) elapsed = 0:0:00:24 / Tue Apr 16 16:56:54 2019
GPGPU-Sim PTX: 5900000 instructions simulated : ctaid=(43,0,0) tid=(31,0,0)
GPGPU-Sim PTX: 6000000 instructions simulated : ctaid=(46,0,0) tid=(63,0,0)
GPGPU-Sim PTX: 6100000 instructions simulated : ctaid=(20,0,0) tid=(63,0,0)
GPGPU-Sim PTX: 6200000 instructions simulated : ctaid=(45,0,0) tid=(63,0,0)
GPGPU-Sim uArch: cycles simulated: 41000  inst.: 6225024 (ipc=151.8) sim_rate=249000 (inst/sec) elapsed = 0:0:00:25 / Tue Apr 16 16:56:55 2019
GPGPU-Sim PTX: 6300000 instructions simulated : ctaid=(14,0,0) tid=(31,0,0)
GPGPU-Sim PTX: 6400000 instructions simulated : ctaid=(48,0,0) tid=(31,0,0)
GPGPU-Sim PTX: 6500000 instructions simulated : ctaid=(27,0,0) tid=(63,0,0)
GPGPU-Sim PTX: 6600000 instructions simulated : ctaid=(35,0,0) tid=(63,0,0)
GPGPU-Sim uArch: cycles simulated: 42500  inst.: 6600224 (ipc=155.3) sim_rate=253854 (inst/sec) elapsed = 0:0:00:26 / Tue Apr 16 16:56:56 2019
GPGPU-Sim PTX: 6700000 instructions simulated : ctaid=(33,0,0) tid=(63,0,0)
GPGPU-Sim PTX: 6800000 instructions simulated : ctaid=(17,0,0) tid=(63,0,0)
GPGPU-Sim PTX: 6900000 instructions simulated : ctaid=(52,0,0) tid=(31,0,0)
GPGPU-Sim uArch: cycles simulated: 44000  inst.: 6954432 (ipc=158.1) sim_rate=257571 (inst/sec) elapsed = 0:0:00:27 / Tue Apr 16 16:56:57 2019
GPGPU-Sim PTX: 7000000 instructions simulated : ctaid=(31,0,0) tid=(31,0,0)
GPGPU-Sim PTX: 7100000 instructions simulated : ctaid=(49,0,0) tid=(31,0,0)
GPGPU-Sim PTX: 7200000 instructions simulated : ctaid=(27,0,0) tid=(63,0,0)
GPGPU-Sim PTX: 7300000 instructions simulated : ctaid=(19,0,0) tid=(31,0,0)
GPGPU-Sim uArch: cycles simulated: 45500  inst.: 7327200 (ipc=161.0) sim_rate=261685 (inst/sec) elapsed = 0:0:00:28 / Tue Apr 16 16:56:58 2019
GPGPU-Sim PTX: 7400000 instructions simulated : ctaid=(39,0,0) tid=(63,0,0)
GPGPU-Sim PTX: 7500000 instructions simulated : ctaid=(51,0,0) tid=(31,0,0)
GPGPU-Sim PTX: 7600000 instructions simulated : ctaid=(25,0,0) tid=(31,0,0)
GPGPU-Sim PTX: 7700000 instructions simulated : ctaid=(55,0,0) tid=(31,0,0)
GPGPU-Sim uArch: cycles simulated: 47000  inst.: 7696352 (ipc=163.8) sim_rate=265391 (inst/sec) elapsed = 0:0:00:29 / Tue Apr 16 16:56:59 2019
GPGPU-Sim PTX: 7800000 instructions simulated : ctaid=(57,0,0) tid=(63,0,0)
GPGPU-Sim PTX: 7900000 instructions simulated : ctaid=(12,0,0) tid=(31,0,0)
GPGPU-Sim PTX: 8000000 instructions simulated : ctaid=(59,0,0) tid=(31,0,0)
GPGPU-Sim uArch: cycles simulated: 48500  inst.: 8057472 (ipc=166.1) sim_rate=268582 (inst/sec) elapsed = 0:0:00:30 / Tue Apr 16 16:57:00 2019
GPGPU-Sim PTX: 8100000 instructions simulated : ctaid=(24,0,0) tid=(31,0,0)
GPGPU-Sim PTX: 8200000 instructions simulated : ctaid=(56,0,0) tid=(31,0,0)
GPGPU-Sim PTX: 8300000 instructions simulated : ctaid=(50,0,0) tid=(63,0,0)
GPGPU-Sim PTX: 8400000 instructions simulated : ctaid=(13,0,0) tid=(31,0,0)
GPGPU-Sim uArch: cycles simulated: 50000  inst.: 8435712 (ipc=168.7) sim_rate=272119 (inst/sec) elapsed = 0:0:00:31 / Tue Apr 16 16:57:01 2019
GPGPU-Sim PTX: 8500000 instructions simulated : ctaid=(45,0,0) tid=(31,0,0)
GPGPU-Sim PTX: 8600000 instructions simulated : ctaid=(18,0,0) tid=(63,0,0)
GPGPU-Sim PTX: 8700000 instructions simulated : ctaid=(46,0,0) tid=(63,0,0)
GPGPU-Sim PTX: 8800000 instructions simulated : ctaid=(32,0,0) tid=(31,0,0)
GPGPU-Sim uArch: cycles simulated: 51500  inst.: 8800352 (ipc=170.9) sim_rate=275011 (inst/sec) elapsed = 0:0:00:32 / Tue Apr 16 16:57:02 2019
GPGPU-Sim PTX: 8900000 instructions simulated : ctaid=(55,0,0) tid=(63,0,0)
GPGPU-Sim PTX: 9000000 instructions simulated : ctaid=(29,0,0) tid=(31,0,0)
GPGPU-Sim uArch: cycles simulated: 52500  inst.: 9037920 (ipc=172.2) sim_rate=273876 (inst/sec) elapsed = 0:0:00:33 / Tue Apr 16 16:57:03 2019
GPGPU-Sim PTX: 9100000 instructions simulated : ctaid=(38,0,0) tid=(63,0,0)
GPGPU-Sim PTX: 9200000 instructions simulated : ctaid=(42,0,0) tid=(63,0,0)
GPGPU-Sim PTX: 9300000 instructions simulated : ctaid=(6,0,0) tid=(63,0,0)
GPGPU-Sim PTX: 9400000 instructions simulated : ctaid=(50,0,0) tid=(31,0,0)
GPGPU-Sim uArch: cycles simulated: 54000  inst.: 9407968 (ipc=174.2) sim_rate=276704 (inst/sec) elapsed = 0:0:00:34 / Tue Apr 16 16:57:04 2019
GPGPU-Sim PTX: 9500000 instructions simulated : ctaid=(60,0,0) tid=(31,0,0)
GPGPU-Sim PTX: 9600000 instructions simulated : ctaid=(8,0,0) tid=(31,0,0)
GPGPU-Sim PTX: 9700000 instructions simulated : ctaid=(46,0,0) tid=(63,0,0)
GPGPU-Sim uArch: cycles simulated: 55500  inst.: 9771040 (ipc=176.1) sim_rate=279172 (inst/sec) elapsed = 0:0:00:35 / Tue Apr 16 16:57:05 2019
GPGPU-Sim PTX: 9800000 instructions simulated : ctaid=(26,0,0) tid=(31,0,0)
GPGPU-Sim PTX: 9900000 instructions simulated : ctaid=(37,0,0) tid=(31,0,0)
GPGPU-Sim PTX: 10000000 instructions simulated : ctaid=(63,0,0) tid=(31,0,0)
GPGPU-Sim PTX: 10100000 instructions simulated : ctaid=(39,0,0) tid=(63,0,0)
GPGPU-Sim uArch: cycles simulated: 57000  inst.: 10130560 (ipc=177.7) sim_rate=281404 (inst/sec) elapsed = 0:0:00:36 / Tue Apr 16 16:57:06 2019
GPGPU-Sim PTX: 10200000 instructions simulated : ctaid=(31,0,0) tid=(63,0,0)
GPGPU-Sim PTX: 10300000 instructions simulated : ctaid=(48,0,0) tid=(31,0,0)
GPGPU-Sim PTX: 10400000 instructions simulated : ctaid=(3,0,0) tid=(31,0,0)
GPGPU-Sim PTX: 10500000 instructions simulated : ctaid=(31,0,0) tid=(63,0,0)
GPGPU-Sim uArch: cycles simulated: 58500  inst.: 10493184 (ipc=179.4) sim_rate=283599 (inst/sec) elapsed = 0:0:00:37 / Tue Apr 16 16:57:07 2019
GPGPU-Sim PTX: 10600000 instructions simulated : ctaid=(44,0,0) tid=(31,0,0)
GPGPU-Sim PTX: 10700000 instructions simulated : ctaid=(6,0,0) tid=(63,0,0)
GPGPU-Sim PTX: 10800000 instructions simulated : ctaid=(37,0,0) tid=(31,0,0)
GPGPU-Sim uArch: cycles simulated: 60000  inst.: 10851392 (ipc=180.9) sim_rate=285562 (inst/sec) elapsed = 0:0:00:38 / Tue Apr 16 16:57:08 2019
GPGPU-Sim PTX: 10900000 instructions simulated : ctaid=(19,0,0) tid=(63,0,0)
GPGPU-Sim PTX: 11000000 instructions simulated : ctaid=(40,0,0) tid=(31,0,0)
GPGPU-Sim PTX: 11100000 instructions simulated : ctaid=(42,0,0) tid=(63,0,0)
GPGPU-Sim PTX: 11200000 instructions simulated : ctaid=(63,0,0) tid=(31,0,0)
GPGPU-Sim uArch: cycles simulated: 61500  inst.: 11203936 (ipc=182.2) sim_rate=287280 (inst/sec) elapsed = 0:0:00:39 / Tue Apr 16 16:57:09 2019
GPGPU-Sim PTX: 11300000 instructions simulated : ctaid=(2,0,0) tid=(63,0,0)
GPGPU-Sim PTX: 11400000 instructions simulated : ctaid=(38,0,0) tid=(31,0,0)
GPGPU-Sim PTX: 11500000 instructions simulated : ctaid=(42,0,0) tid=(63,0,0)
GPGPU-Sim uArch: cycles simulated: 63000  inst.: 11552768 (ipc=183.4) sim_rate=288819 (inst/sec) elapsed = 0:0:00:40 / Tue Apr 16 16:57:10 2019
GPGPU-Sim PTX: 11600000 instructions simulated : ctaid=(9,0,0) tid=(63,0,0)
GPGPU-Sim PTX: 11700000 instructions simulated : ctaid=(53,0,0) tid=(31,0,0)
GPGPU-Sim PTX: 11800000 instructions simulated : ctaid=(39,0,0) tid=(31,0,0)
GPGPU-Sim PTX: 11900000 instructions simulated : ctaid=(30,0,0) tid=(31,0,0)
GPGPU-Sim uArch: cycles simulated: 64500  inst.: 11907712 (ipc=184.6) sim_rate=290432 (inst/sec) elapsed = 0:0:00:41 / Tue Apr 16 16:57:11 2019
GPGPU-Sim PTX: 12000000 instructions simulated : ctaid=(52,0,0) tid=(63,0,0)
GPGPU-Sim PTX: 12100000 instructions simulated : ctaid=(18,0,0) tid=(63,0,0)
GPGPU-Sim PTX: 12200000 instructions simulated : ctaid=(17,0,0) tid=(31,0,0)
GPGPU-Sim uArch: cycles simulated: 66000  inst.: 12257888 (ipc=185.7) sim_rate=291854 (inst/sec) elapsed = 0:0:00:42 / Tue Apr 16 16:57:12 2019
GPGPU-Sim PTX: 12300000 instructions simulated : ctaid=(60,0,0) tid=(31,0,0)
GPGPU-Sim PTX: 12400000 instructions simulated : ctaid=(11,0,0) tid=(63,0,0)
GPGPU-Sim PTX: 12500000 instructions simulated : ctaid=(7,0,0) tid=(63,0,0)
GPGPU-Sim PTX: 12600000 instructions simulated : ctaid=(30,0,0) tid=(63,0,0)
GPGPU-Sim uArch: cycles simulated: 67500  inst.: 12612128 (ipc=186.8) sim_rate=293305 (inst/sec) elapsed = 0:0:00:43 / Tue Apr 16 16:57:13 2019
GPGPU-Sim PTX: 12700000 instructions simulated : ctaid=(62,0,0) tid=(63,0,0)
GPGPU-Sim PTX: 12800000 instructions simulated : ctaid=(7,0,0) tid=(63,0,0)
GPGPU-Sim PTX: 12900000 instructions simulated : ctaid=(41,0,0) tid=(31,0,0)
GPGPU-Sim uArch: cycles simulated: 69000  inst.: 12963872 (ipc=187.9) sim_rate=294633 (inst/sec) elapsed = 0:0:00:44 / Tue Apr 16 16:57:14 2019
GPGPU-Sim PTX: 13000000 instructions simulated : ctaid=(3,0,0) tid=(31,0,0)
GPGPU-Sim PTX: 13100000 instructions simulated : ctaid=(10,0,0) tid=(31,0,0)
GPGPU-Sim PTX: 13200000 instructions simulated : ctaid=(11,0,0) tid=(63,0,0)
GPGPU-Sim uArch: cycles simulated: 70000  inst.: 13201024 (ipc=188.6) sim_rate=293356 (inst/sec) elapsed = 0:0:00:45 / Tue Apr 16 16:57:15 2019
GPGPU-Sim PTX: 13300000 instructions simulated : ctaid=(51,0,0) tid=(31,0,0)
GPGPU-Sim PTX: 13400000 instructions simulated : ctaid=(38,0,0) tid=(31,0,0)
GPGPU-Sim PTX: 13500000 instructions simulated : ctaid=(35,0,0) tid=(63,0,0)
GPGPU-Sim uArch: cycles simulated: 71500  inst.: 13551008 (ipc=189.5) sim_rate=294587 (inst/sec) elapsed = 0:0:00:46 / Tue Apr 16 16:57:16 2019
GPGPU-Sim PTX: 13600000 instructions simulated : ctaid=(7,0,0) tid=(31,0,0)
GPGPU-Sim PTX: 13700000 instructions simulated : ctaid=(40,0,0) tid=(31,0,0)
GPGPU-Sim PTX: 13800000 instructions simulated : ctaid=(30,0,0) tid=(31,0,0)
GPGPU-Sim PTX: 13900000 instructions simulated : ctaid=(2,0,0) tid=(31,0,0)
GPGPU-Sim uArch: cycles simulated: 73000  inst.: 13907744 (ipc=190.5) sim_rate=295909 (inst/sec) elapsed = 0:0:00:47 / Tue Apr 16 16:57:17 2019
GPGPU-Sim PTX: 14000000 instructions simulated : ctaid=(40,0,0) tid=(63,0,0)
GPGPU-Sim PTX: 14100000 instructions simulated : ctaid=(5,0,0) tid=(63,0,0)
GPGPU-Sim PTX: 14200000 instructions simulated : ctaid=(31,0,0) tid=(31,0,0)
GPGPU-Sim uArch: cycles simulated: 74500  inst.: 14262368 (ipc=191.4) sim_rate=297132 (inst/sec) elapsed = 0:0:00:48 / Tue Apr 16 16:57:18 2019
GPGPU-Sim PTX: 14300000 instructions simulated : ctaid=(13,0,0) tid=(63,0,0)
GPGPU-Sim PTX: 14400000 instructions simulated : ctaid=(62,0,0) tid=(31,0,0)
GPGPU-Sim PTX: 14500000 instructions simulated : ctaid=(3,0,0) tid=(31,0,0)
GPGPU-Sim PTX: 14600000 instructions simulated : ctaid=(10,0,0) tid=(31,0,0)
GPGPU-Sim uArch: cycles simulated: 76000  inst.: 14618528 (ipc=192.3) sim_rate=298337 (inst/sec) elapsed = 0:0:00:49 / Tue Apr 16 16:57:19 2019
GPGPU-Sim PTX: 14700000 instructions simulated : ctaid=(54,0,0) tid=(63,0,0)
GPGPU-Sim PTX: 14800000 instructions simulated : ctaid=(46,0,0) tid=(31,0,0)
GPGPU-Sim PTX: 14900000 instructions simulated : ctaid=(55,0,0) tid=(31,0,0)
GPGPU-Sim PTX: 15000000 instructions simulated : ctaid=(53,0,0) tid=(31,0,0)
GPGPU-Sim uArch: cycles simulated: 77500  inst.: 14976800 (ipc=193.2) sim_rate=299536 (inst/sec) elapsed = 0:0:00:50 / Tue Apr 16 16:57:20 2019
GPGPU-Sim PTX: 15100000 instructions simulated : ctaid=(8,0,0) tid=(63,0,0)
GPGPU-Sim PTX: 15200000 instructions simulated : ctaid=(58,0,0) tid=(31,0,0)
GPGPU-Sim PTX: 15300000 instructions simulated : ctaid=(24,0,0) tid=(31,0,0)
GPGPU-Sim uArch: cycles simulated: 79000  inst.: 15336448 (ipc=194.1) sim_rate=300714 (inst/sec) elapsed = 0:0:00:51 / Tue Apr 16 16:57:21 2019
GPGPU-Sim PTX: 15400000 instructions simulated : ctaid=(32,0,0) tid=(31,0,0)
GPGPU-Sim PTX: 15500000 instructions simulated : ctaid=(42,0,0) tid=(31,0,0)
GPGPU-Sim PTX: 15600000 instructions simulated : ctaid=(29,0,0) tid=(31,0,0)
GPGPU-Sim PTX: 15700000 instructions simulated : ctaid=(18,0,0) tid=(31,0,0)
GPGPU-Sim uArch: cycles simulated: 80500  inst.: 15695776 (ipc=195.0) sim_rate=301841 (inst/sec) elapsed = 0:0:00:52 / Tue Apr 16 16:57:22 2019
GPGPU-Sim PTX: 15800000 instructions simulated : ctaid=(3,0,0) tid=(31,0,0)
GPGPU-Sim PTX: 15900000 instructions simulated : ctaid=(16,0,0) tid=(63,0,0)
GPGPU-Sim PTX: 16000000 instructions simulated : ctaid=(32,0,0) tid=(31,0,0)
GPGPU-Sim uArch: cycles simulated: 82000  inst.: 16056992 (ipc=195.8) sim_rate=302962 (inst/sec) elapsed = 0:0:00:53 / Tue Apr 16 16:57:23 2019
GPGPU-Sim PTX: 16100000 instructions simulated : ctaid=(46,0,0) tid=(31,0,0)
GPGPU-Sim PTX: 16200000 instructions simulated : ctaid=(5,0,0) tid=(31,0,0)
GPGPU-Sim PTX: 16300000 instructions simulated : ctaid=(21,0,0) tid=(63,0,0)
GPGPU-Sim PTX: 16400000 instructions simulated : ctaid=(21,0,0) tid=(63,0,0)
GPGPU-Sim uArch: cycles simulated: 83500  inst.: 16415328 (ipc=196.6) sim_rate=303987 (inst/sec) elapsed = 0:0:00:54 / Tue Apr 16 16:57:24 2019
GPGPU-Sim PTX: 16500000 instructions simulated : ctaid=(3,0,0) tid=(63,0,0)
GPGPU-Sim PTX: 16600000 instructions simulated : ctaid=(12,0,0) tid=(63,0,0)
GPGPU-Sim PTX: 16700000 instructions simulated : ctaid=(26,0,0) tid=(31,0,0)
GPGPU-Sim PTX: 16800000 instructions simulated : ctaid=(61,0,0) tid=(63,0,0)
GPGPU-Sim uArch: cycles simulated: 85000  inst.: 16776864 (ipc=197.4) sim_rate=305033 (inst/sec) elapsed = 0:0:00:55 / Tue Apr 16 16:57:25 2019
GPGPU-Sim PTX: 16900000 instructions simulated : ctaid=(55,0,0) tid=(31,0,0)
GPGPU-Sim PTX: 17000000 instructions simulated : ctaid=(12,0,0) tid=(63,0,0)
GPGPU-Sim PTX: 17100000 instructions simulated : ctaid=(28,0,0) tid=(63,0,0)
GPGPU-Sim uArch: cycles simulated: 86500  inst.: 17130368 (ipc=198.0) sim_rate=305899 (inst/sec) elapsed = 0:0:00:56 / Tue Apr 16 16:57:26 2019
GPGPU-Sim PTX: 17200000 instructions simulated : ctaid=(7,0,0) tid=(63,0,0)
GPGPU-Sim PTX: 17300000 instructions simulated : ctaid=(28,0,0) tid=(31,0,0)
GPGPU-Sim PTX: 17400000 instructions simulated : ctaid=(38,0,0) tid=(63,0,0)
GPGPU-Sim PTX: 17500000 instructions simulated : ctaid=(44,0,0) tid=(31,0,0)
GPGPU-Sim uArch: cycles simulated: 88000  inst.: 17492032 (ipc=198.8) sim_rate=306877 (inst/sec) elapsed = 0:0:00:57 / Tue Apr 16 16:57:27 2019
GPGPU-Sim PTX: 17600000 instructions simulated : ctaid=(2,0,0) tid=(63,0,0)
GPGPU-Sim PTX: 17700000 instructions simulated : ctaid=(27,0,0) tid=(63,0,0)
GPGPU-Sim uArch: cycles simulated: 89000  inst.: 17730304 (ipc=199.2) sim_rate=305694 (inst/sec) elapsed = 0:0:00:58 / Tue Apr 16 16:57:28 2019
GPGPU-Sim PTX: 17800000 instructions simulated : ctaid=(55,0,0) tid=(31,0,0)
GPGPU-Sim PTX: 17900000 instructions simulated : ctaid=(63,0,0) tid=(63,0,0)
GPGPU-Sim PTX: 18000000 instructions simulated : ctaid=(26,0,0) tid=(31,0,0)
GPGPU-Sim PTX: 18100000 instructions simulated : ctaid=(29,0,0) tid=(63,0,0)
GPGPU-Sim uArch: cycles simulated: 90500  inst.: 18094528 (ipc=199.9) sim_rate=306686 (inst/sec) elapsed = 0:0:00:59 / Tue Apr 16 16:57:29 2019
GPGPU-Sim PTX: 18200000 instructions simulated : ctaid=(30,0,0) tid=(63,0,0)
GPGPU-Sim PTX: 18300000 instructions simulated : ctaid=(41,0,0) tid=(63,0,0)
GPGPU-Sim PTX: 18400000 instructions simulated : ctaid=(28,0,0) tid=(31,0,0)
GPGPU-Sim uArch: cycles simulated: 92000  inst.: 18455328 (ipc=200.6) sim_rate=307588 (inst/sec) elapsed = 0:0:01:00 / Tue Apr 16 16:57:30 2019
GPGPU-Sim PTX: 18500000 instructions simulated : ctaid=(4,0,0) tid=(31,0,0)
GPGPU-Sim PTX: 18600000 instructions simulated : ctaid=(22,0,0) tid=(31,0,0)
GPGPU-Sim PTX: 18700000 instructions simulated : ctaid=(31,0,0) tid=(63,0,0)
GPGPU-Sim PTX: 18800000 instructions simulated : ctaid=(56,0,0) tid=(31,0,0)
GPGPU-Sim uArch: cycles simulated: 93500  inst.: 18816896 (ipc=201.3) sim_rate=308473 (inst/sec) elapsed = 0:0:01:01 / Tue Apr 16 16:57:31 2019
GPGPU-Sim PTX: 18900000 instructions simulated : ctaid=(15,0,0) tid=(31,0,0)
GPGPU-Sim PTX: 19000000 instructions simulated : ctaid=(41,0,0) tid=(31,0,0)
GPGPU-Sim PTX: 19100000 instructions simulated : ctaid=(0,0,0) tid=(31,0,0)
GPGPU-Sim PTX: 19200000 instructions simulated : ctaid=(16,0,0) tid=(63,0,0)
GPGPU-Sim uArch: cycles simulated: 95000  inst.: 19176960 (ipc=201.9) sim_rate=309305 (inst/sec) elapsed = 0:0:01:02 / Tue Apr 16 16:57:32 2019
GPGPU-Sim PTX: 19300000 instructions simulated : ctaid=(40,0,0) tid=(31,0,0)
GPGPU-Sim PTX: 19400000 instructions simulated : ctaid=(32,0,0) tid=(31,0,0)
GPGPU-Sim PTX: 19500000 instructions simulated : ctaid=(50,0,0) tid=(31,0,0)
GPGPU-Sim uArch: cycles simulated: 96500  inst.: 19539904 (ipc=202.5) sim_rate=310157 (inst/sec) elapsed = 0:0:01:03 / Tue Apr 16 16:57:33 2019
GPGPU-Sim PTX: 19600000 instructions simulated : ctaid=(7,0,0) tid=(63,0,0)
GPGPU-Sim PTX: 19700000 instructions simulated : ctaid=(35,0,0) tid=(63,0,0)
GPGPU-Sim PTX: 19800000 instructions simulated : ctaid=(33,0,0) tid=(31,0,0)
GPGPU-Sim PTX: 19900000 instructions simulated : ctaid=(0,0,0) tid=(63,0,0)
GPGPU-Sim uArch: cycles simulated: 98000  inst.: 19896768 (ipc=203.0) sim_rate=310887 (inst/sec) elapsed = 0:0:01:04 / Tue Apr 16 16:57:34 2019
GPGPU-Sim PTX: 20000000 instructions simulated : ctaid=(28,0,0) tid=(31,0,0)
GPGPU-Sim PTX: 20100000 instructions simulated : ctaid=(45,0,0) tid=(31,0,0)
GPGPU-Sim PTX: 20200000 instructions simulated : ctaid=(27,0,0) tid=(31,0,0)
GPGPU-Sim uArch: cycles simulated: 99500  inst.: 20262720 (ipc=203.6) sim_rate=311734 (inst/sec) elapsed = 0:0:01:05 / Tue Apr 16 16:57:35 2019
GPGPU-Sim PTX: 20300000 instructions simulated : ctaid=(43,0,0) tid=(31,0,0)
GPGPU-Sim PTX: 20400000 instructions simulated : ctaid=(63,0,0) tid=(63,0,0)
GPGPU-Sim PTX: 20500000 instructions simulated : ctaid=(23,0,0) tid=(63,0,0)
GPGPU-Sim PTX: 20600000 instructions simulated : ctaid=(48,0,0) tid=(31,0,0)
GPGPU-Sim uArch: cycles simulated: 101000  inst.: 20619424 (ipc=204.2) sim_rate=312415 (inst/sec) elapsed = 0:0:01:06 / Tue Apr 16 16:57:36 2019
GPGPU-Sim PTX: 20700000 instructions simulated : ctaid=(57,0,0) tid=(63,0,0)
GPGPU-Sim PTX: 20800000 instructions simulated : ctaid=(15,0,0) tid=(63,0,0)
GPGPU-Sim uArch: cycles simulated: 102000  inst.: 20859360 (ipc=204.5) sim_rate=311333 (inst/sec) elapsed = 0:0:01:07 / Tue Apr 16 16:57:37 2019
GPGPU-Sim PTX: 20900000 instructions simulated : ctaid=(19,0,0) tid=(63,0,0)
GPGPU-Sim PTX: 21000000 instructions simulated : ctaid=(57,0,0) tid=(31,0,0)
GPGPU-Sim PTX: 21100000 instructions simulated : ctaid=(43,0,0) tid=(63,0,0)
GPGPU-Sim PTX: 21200000 instructions simulated : ctaid=(48,0,0) tid=(31,0,0)
GPGPU-Sim uArch: cycles simulated: 103500  inst.: 21224224 (ipc=205.1) sim_rate=312120 (inst/sec) elapsed = 0:0:01:08 / Tue Apr 16 16:57:38 2019
GPGPU-Sim PTX: 21300000 instructions simulated : ctaid=(49,0,0) tid=(31,0,0)
GPGPU-Sim PTX: 21400000 instructions simulated : ctaid=(39,0,0) tid=(63,0,0)
[...]
mf_lat_table:0 	0 	0 	0 	0 	0 	0 	194792 	1713092 	40770 	4561 	0 	0 	0 	0 	0 	0 	0 	0 	0 	0 	0 	0 	0 	0 	0 	0 	0 	0 	0 	0 	0 	
icnt2mem_lat_table:0 	0 	0 	2323805 	487444 	9279 	9907 	12446 	20721 	704 	0 	0 	0 	0 	0 	0 	0 	0 	0 	0 	0 	0 	0 	0 	
icnt2sh_lat_table:0 	0 	0 	1374145 	191215 	853 	0 	0 	0 	0 	0 	1037 	2707 	5725 	10718 	293 	1 	1 	0 	0 	166481 	199798 	241 	0 	
mf_lat_pw_table:0 	0 	0 	0 	0 	0 	0 	1908 	8090 	118 	2 	0 	0 	0 	0 	0 	0 	0 	0 	0 	0 	0 	0 	0 	0 	0 	0 	0 	0 	0 	0 	0 	
maximum concurrent accesses to same row:
dram[0]:        36        30        50        50        26        28        26        32        42        32        24        24        28        24        24        28 
dram[1]:        32        32        48        54        24        22        28        32        34        36        28        25        28        29        28        28 
dram[2]:        38        32        50        60        22        26        25        32        42        44        26        26        27        24        28        28 
dram[3]:        28        30        46        56        30        20        28        24        26        40        28        23        24        25        32        28 
dram[4]:        32        30        50        52        28        20        28        22        36        40        28        27        27        29        30        28 
dram[5]:        28        42        54        52        18        26        32        24        38        42        26        24        24        26        28        28 
maximum service time to same row:
dram[0]:     81871     57563     58312     81663     81688     70206     37607     36715     45449     59613     15923     23253     32875     28663     54128     52062 
dram[1]:     39319    120005     66519     38119     29441     50408     17421     40341     16062     19175     13584     15875     19750     46306     18175     46441 
dram[2]:     60409     42522     80628     38031     60408     63508     62796     28098     17459     50250     25563     22438     36170     35713     54195     55342 
dram[3]:     47102     89357     68823     63352     71383     85481     38219     23673     34165     17818     20507     13659     39575     24400     25443     28499 
dram[4]:     20257     15967     82083     43037     27119     66547     36356     43227     12360     20421     12177     20692     13584     12782     26369     29323 
dram[5]:     66015    112830     44359     45304     82832     64857     40038     67596     24224     20289     24035     18784     17717     36461     39856     27394 
average row accesses per activate:
dram[0]:  1.731910  1.758004  1.791711  1.756962  1.754916  1.766612  1.744486  1.770613  1.745814  1.735955  1.749051  1.738623  1.721426  1.736947  1.738816  1.710525 
dram[1]:  1.697109  1.698777  1.731135  1.737754  1.720166  1.732056  1.723650  1.709109  1.707844  1.706383  1.696395  1.712292  1.690588  1.687247  1.697109  1.683306 
dram[2]:  1.753888  1.710449  1.739199  1.779242  1.736742  1.762929  1.757762  1.727464  1.729155  1.737014  1.714163  1.726414  1.731105  1.701357  1.696455  1.743411 
dram[3]:  1.734915  1.749583  1.780816  1.776614  1.754560  1.770752  1.770755  1.761023  1.744576  1.739411  1.753289  1.753225  1.724725  1.708934  1.727557  1.736819 
dram[4]:  1.695401  1.716616  1.728990  1.738217  1.727264  1.741856  1.728242  1.721435  1.682974  1.722989  1.711863  1.687457  1.684916  1.711884  1.690152  1.666624 
dram[5]:  1.724242  1.720584  1.743253  1.782954  1.759281  1.742106  1.745540  1.751882  1.709560  1.746205  1.748993  1.720347  1.695662  1.719516  1.721404  1.708332 
average row locality = 3472172/2007748 = 1.729386
number of total memory accesses made:
dram[0]:         0         0         0         0         0         0         0         0         0         0         0         0         0         0         0         0 
dram[1]:         0         0         0         0         0         0         0         0         0         0         0         0         0         0         0         0 
dram[2]:         0         0         0         0         0         0         0         0         0         0         0         0         0         0         0         0 
dram[3]:         0         0         0         0         0         0         0         0         0         0         0         0         0         0         0         0 
dram[4]:         0         0         0         0         0         0         0         0         0         0         0         0         0         0         0         0 
dram[5]:         0         0         0         0         0         0         0         0         0         0         0         0         0         0         0         0 
total accesses: 0
min_bank_accesses = 0!
min_chip_accesses = 0!
number of total read accesses:
dram[0]:     22105     21791     21862     21177     21662     23089     23024     22343     22953     23271     23282     24318     24731     23553     23747     24687 
dram[1]:     22245     21779     22096     21567     22147     23184     23318     22364     23616     23671     23558     24504     25121     23950     24442     24859 
dram[2]:     23478     22530     22486     22310     22588     24004     24254     22997     23818     24501     24575     24798     25649     24623     24744     26127 
dram[3]:     21935     21261     21321     22149     22189     22365     23132     22431     22247     23989     24584     23278     23790     24007     24240     25026 
dram[4]:     22596     21769     21314     22482     22652     23096     23490     22773     22865     24386     24629     23790     24469     24772     24342     25087 
dram[5]:     23490     22072     21970     23305     23650     23013     23952     23676     23739     24731     25571     24229     24842     25190     25694     25831 
total reads: 2250909
bank skew: 26127/21177 = 1.23
chip skew: 384955/367595 = 1.05
number of total write accesses:
dram[0]:     11811     11539     11643     11188     11627     12563     12567     11952     12494     12757     12654     13351     13810     12942     13102     13716 
dram[1]:     12040     11709     11810     11426     11871     12531     12758     12066     12896     13006     12906     13413     14055     13188     13485     13921 
dram[2]:     12389     11992     11931     11718     11961     12880     13000     12283     12847     13352     13320     13594     14182     13484     13489     14355 
dram[3]:     11849     11283     11243     11763     11960     12023     12531     11997     12088     13257     13401     12600     13076     13311     13305     13877 
dram[4]:     12314     11590     11274     12112     12199     12356     12670     12346     12533     13425     13525     13059     13509     13718     13465     14177 
dram[5]:     12657     11765     11490     12363     12651     12242     12837     12630     12849     13572     13930     13032     13658     13886     14036     14255 
total reads: 1221263
bank skew: 14355/11188 = 1.28
chip skew: 207853/199564 = 1.04
average mf latency per bank:
dram[0]:        162       162       163       168       167       164       163       163       162       161       161       160       160       161       159       160
dram[1]:        163       164       164       166       166       163       162       164       161       161       161       159       159       161       159       160
dram[2]:        162       165       166       166       168       164       163       166       162       161       163       162       160       163       163       159
dram[3]:        163       164       165       164       166       165       162       163       163       161       158       160       160       162       161       158
dram[4]:        161       162       165       164       165       162       162       163       163       159       158       161       160       158       160       160
dram[5]:        161       165       167       165       165       166       163       164       163       161       159       162       162       161       160       161
maximum mf latency per bank:
dram[0]:       1431      1249      1355      1571      1481      1478      1312      1584      1528      1252      1344      1261      1354      1451      1277      1372
dram[1]:       1370      1247      1581      1548      1583      1324      1520      1374      1359      1357      1485      1488      1436      1374      1381      1621
dram[2]:       1431      1245      1245      1673      1652      1357      1526      1373      1335      1295      1665      1463      1268      1309      1388      1338
dram[3]:       1259      1534      1653      1404      1341      1399      1416      1475      1316      1354      1287      1339      1339      1293      1303      1365
dram[4]:       1446      1346      1606      1505      1574      1395      1516      1390      1331      1279      1387      1398      1360      1428      1338      1360
dram[5]:       1272      1251      1455      1691      1385      1334      1415      1493      1318      1318      1236      1360      1294      1480      1358      1473

Number of Memory Banks Accessed per Memory Operation per Warp (from 0):
0	0	0	0	0	0	0	0	0	0	0	0	0	0	0	0	0	0	0	0	0	0	0	0	0	0	0	0	0	0	0	0	0	0	0	0	0	0	0	0	0	0	0	0	0	0	0	0	0	0	0	0	0	0	0	0	0	0	0	0	0	0	0	0	0	0	0	0	0	0	0	0	0	0	0	0	0	0	0	0	0	0	0	0	0	0	0	0	0	0	0	0	0	0	0	0	
Average # of Memory Banks Accessed per Memory Operation per Warp=-nan

position of mrq chosen
0	0	0	0	0	0	0	0	0	0	0	0	0	0	0	0	

average position of mrq chosen = -nan
Memory Partition 0: 
Cache L2_bank_000:
MSHR contents

Cache L2_bank_001:
MSHR contents

In Dram Latency Queue (total = 0): 
DRAM[0]: 16 bks, busW=4 BL=8 CL=12, tRRD=2 tCCD=6, tRCD=12 tRAS=28 tRP=12 tRC=40
n_cmd=6681235 n_nop=4896833 n_act=324898 n_pre=324882 n_req=567311 n_rd=735190 n_write=399432 bw_util=0.3396
n_activity=5751759 dram_eff=0.3945
bk0: 44210a 5577571i bk1: 43582a 5597208i bk2: 43724a 5595006i bk3: 42354a 5616035i bk4: 43324a 5582912i bk5: 46178a 5493844i bk6: 46048a 5483388i bk7: 44686a 5523971i bk8: 45906a 5542429i bk9: 46542a 5510429i bk10: 46564a 5504416i bk11: 48636a 5438296i bk12: 49462a 5387958i bk13: 47106a 5449524i bk14: 47494a 5427359i bk15: 49374a 5355587i 
dram_util_bins: 0 0 0 0 0 0 0 0 0 0
dram_eff_bins: 0 0 0 0 0 0 0 0 0 0
mrqq: max=16 avg=1.84798
Memory Partition 1: 
Cache L2_bank_002:
MSHR contents

Cache L2_bank_003:
MSHR contents

In Dram Latency Queue (total = 0): 
DRAM[1]: 16 bks, busW=4 BL=8 CL=12, tRRD=2 tCCD=6, tRCD=12 tRAS=28 tRP=12 tRC=40
n_cmd=6681235 n_nop=4856165 n_act=337041 n_pre=337025 n_req=575502 n_rd=744842 n_write=406162 bw_util=0.3445
n_activity=5868282 dram_eff=0.3923
bk0: 44490a 5550800i bk1: 43558a 5574638i bk2: 44192a 5561163i bk3: 43134a 5587080i bk4: 44294a 5546483i bk5: 46368a 5476709i bk6: 46636a 5462613i bk7: 44728a 5496901i bk8: 47232a 5502219i bk9: 47342a 5478419i bk10: 47116a 5475607i bk11: 49008a 5415290i bk12: 50242a 5354424i bk13: 47900a 5404609i bk14: 48884a 5378821i bk15: 49718a 5330029i 
dram_util_bins: 0 0 0 0 0 0 0 0 0 0
dram_eff_bins: 0 0 0 0 0 0 0 0 0 0
mrqq: max=16 avg=1.82138
Memory Partition 2: 
Cache L2_bank_004:
MSHR contents

Cache L2_bank_005:
MSHR contents

In Dram Latency Queue (total = 0): 
DRAM[2]: 16 bks, busW=4 BL=8 CL=12, tRRD=2 tCCD=6, tRCD=12 tRAS=28 tRP=12 tRC=40
n_cmd=6681235 n_nop=4819763 n_act=340485 n_pre=340469 n_req=590259 n_rd=766964 n_write=413554 bw_util=0.3534
n_activity=5818362 dram_eff=0.4058
bk0: 46956a 5494552i bk1: 45060a 5519178i bk2: 44972a 5518163i bk3: 44620a 5543170i bk4: 45176a 5507088i bk5: 48008a 5419467i bk6: 48508a 5387057i bk7: 45994a 5449037i bk8: 47636a 5470537i bk9: 49002a 5426549i bk10: 49150a 5401357i bk11: 49596a 5373353i bk12: 51298a 5318673i bk13: 49246a 5346508i bk14: 49488a 5333828i bk15: 52254a 5259862i 
dram_util_bins: 0 0 0 0 0 0 0 0 0 0
dram_eff_bins: 0 0 0 0 0 0 0 0 0 0
mrqq: max=16 avg=2.04043
Memory Partition 3: 
Cache L2_bank_006:
MSHR contents

Cache L2_bank_007:
MSHR contents
MSHR: tag=0x80006d80, atomic=0 1 entries : 0x7f5080b5ae00 :  mf: uid=23139367, sid05:w07, part=3, addr=0x80006d80, load , size=128, unknown  status = IN_PARTITION_DRAM (5061540), 

In Dram Latency Queue (total = 0): 
DRAM[3]: 16 bks, busW=4 BL=8 CL=12, tRRD=2 tCCD=6, tRCD=12 tRAS=28 tRP=12 tRC=40
n_cmd=6681235 n_nop=4897059 n_act=324588 n_pre=324572 n_req=567508 n_rd=735888 n_write=399128 bw_util=0.3398
n_activity=5753566 dram_eff=0.3945
bk0: 43870a 5582379i bk1: 42522a 5619980i bk2: 42642a 5626651i bk3: 44298a 5573511i bk4: 44378a 5549153i bk5: 44730a 5537129i bk6: 46264a 5485478i bk7: 44862a 5516659i bk8: 44494a 5583763i bk9: 47978a 5476009i bk10: 49168a 5441643i bk11: 46556a 5498348i bk12: 47580a 5436290i bk13: 48014a 5418467i bk14: 48480a 5400652i bk15: 50052a 5342420i 
dram_util_bins: 0 0 0 0 0 0 0 0 0 0
dram_eff_bins: 0 0 0 0 0 0 0 0 0 0
mrqq: max=16 avg=1.85041
Memory Partition 4: 
Cache L2_bank_008:
MSHR contents

Cache L2_bank_009:
MSHR contents

In Dram Latency Queue (total = 0): 
DRAM[4]: 16 bks, busW=4 BL=8 CL=12, tRRD=2 tCCD=6, tRCD=12 tRAS=28 tRP=12 tRC=40
n_cmd=6681235 n_nop=4846317 n_act=338683 n_pre=338667 n_req=578784 n_rd=749024 n_write=408544 bw_util=0.3465
n_activity=5886386 dram_eff=0.3933
bk0: 45192a 5530005i bk1: 43538a 5579420i bk2: 42628a 5596557i bk3: 44964a 5537204i bk4: 45304a 5511039i bk5: 46192a 5488109i bk6: 46980a 5449068i bk7: 45546a 5471023i bk8: 45730a 5527502i bk9: 48772a 5445815i bk10: 49258a 5414563i bk11: 47580a 5439593i bk12: 48938a 5387705i bk13: 49544a 5371312i bk14: 48684a 5373098i bk15: 50174a 5303204i 
dram_util_bins: 0 0 0 0 0 0 0 0 0 0
dram_eff_bins: 0 0 0 0 0 0 0 0 0 0
mrqq: max=16 avg=1.84327
Memory Partition 5: 
Cache L2_bank_010:
MSHR contents

Cache L2_bank_011:
MSHR contents

In Dram Latency Queue (total = 0): 
DRAM[5]: 16 bks, busW=4 BL=8 CL=12, tRRD=2 tCCD=6, tRCD=12 tRAS=28 tRP=12 tRC=40
n_cmd=6681235 n_nop=4811523 n_act=342056 n_pre=342040 n_req=592808 n_rd=769910 n_write=415706 bw_util=0.3549
n_activity=5829144 dram_eff=0.4068
bk0: 46980a 5469526i bk1: 44144a 5541743i bk2: 43940a 5553733i bk3: 46610a 5480995i bk4: 47300a 5443454i bk5: 46026a 5465798i bk6: 47904a 5400236i bk7: 47352a 5413327i bk8: 47478a 5467548i bk9: 49462a 5405871i bk10: 51142a 5355126i bk11: 48458a 5403217i bk12: 49684a 5339812i bk13: 50380a 5324764i bk14: 51388a 5290172i bk15: 51662a 5251808i 
dram_util_bins: 0 0 0 0 0 0 0 0 0 0
dram_eff_bins: 0 0 0 0 0 0 0 0 0 0
mrqq: max=16 avg=2.06036

========= L2 cache stats =========
L2_cache_bank[0]: Access = 234624, Miss = 183366, Miss_rate = 0.782, Pending_hits = 40, Reservation_fails = 186
L2_cache_bank[1]: Access = 234809, Miss = 184229, Miss_rate = 0.785, Pending_hits = 43, Reservation_fails = 553
L2_cache_bank[2]: Access = 237441, Miss = 186543, Miss_rate = 0.786, Pending_hits = 51, Reservation_fails = 171
L2_cache_bank[3]: Access = 236701, Miss = 185878, Miss_rate = 0.785, Pending_hits = 53, Reservation_fails = 477
L2_cache_bank[4]: Access = 243300, Miss = 191592, Miss_rate = 0.787, Pending_hits = 29, Reservation_fails = 207
L2_cache_bank[5]: Access = 243493, Miss = 191890, Miss_rate = 0.788, Pending_hits = 41, Reservation_fails = 13
L2_cache_bank[6]: Access = 234446, Miss = 183438, Miss_rate = 0.782, Pending_hits = 32, Reservation_fails = 104
L2_cache_bank[7]: Access = 234856, Miss = 184506, Miss_rate = 0.786, Pending_hits = 48, Reservation_fails = 850
L2_cache_bank[8]: Access = 237044, Miss = 186357, Miss_rate = 0.786, Pending_hits = 33, Reservation_fails = 6
L2_cache_bank[9]: Access = 238650, Miss = 188155, Miss_rate = 0.788, Pending_hits = 41, Reservation_fails = 44
L2_cache_bank[10]: Access = 244722, Miss = 192908, Miss_rate = 0.788, Pending_hits = 45, Reservation_fails = 250
L2_cache_bank[11]: Access = 244220, Miss = 192047, Miss_rate = 0.786, Pending_hits = 36, Reservation_fails = 35
L2_total_cache_accesses = 2864306
L2_total_cache_misses = 2250909
L2_total_cache_miss_rate = 0.7858
L2_total_cache_pending_hits = 492
L2_total_cache_reservation_fails = 2896
L2_total_cache_breakdown:
	L2_cache_stats_breakdown[LOCAL_ACC_R][HIT] = 182187
	L2_cache_stats_breakdown[LOCAL_ACC_R][HIT_RESERVED] = 420
	L2_cache_stats_breakdown[LOCAL_ACC_R][MISS] = 1383456
	L2_cache_stats_breakdown[LOCAL_ACC_R][RESERVATION_FAIL] = 41
	L2_cache_stats_breakdown[CONST_ACC_R][HIT] = 123
	L2_cache_stats_breakdown[CONST_ACC_R][HIT_RESERVED] = 16
	L2_cache_stats_breakdown[CONST_ACC_R][MISS] = 11
	L2_cache_stats_breakdown[CONST_ACC_R][RESERVATION_FAIL] = 388
	L2_cache_stats_breakdown[GLOBAL_ACC_W][MISS] = 384
	L2_cache_stats_breakdown[LOCAL_ACC_W][HIT] = 326
	L2_cache_stats_breakdown[LOCAL_ACC_W][HIT_RESERVED] = 8
	L2_cache_stats_breakdown[LOCAL_ACC_W][MISS] = 386284
	L2_cache_stats_breakdown[LOCAL_ACC_W][RESERVATION_FAIL] = 977
	L2_cache_stats_breakdown[L1_WRBK_ACC][HIT] = 429849
	L2_cache_stats_breakdown[L1_WRBK_ACC][MISS] = 480634
	L2_cache_stats_breakdown[L1_WRBK_ACC][RESERVATION_FAIL] = 17
	L2_cache_stats_breakdown[INST_ACC_R][HIT] = 420
	L2_cache_stats_breakdown[INST_ACC_R][HIT_RESERVED] = 48
	L2_cache_stats_breakdown[INST_ACC_R][MISS] = 140
	L2_cache_stats_breakdown[INST_ACC_R][RESERVATION_FAIL] = 1473
L2_cache_data_port_util = 0.058
L2_cache_fill_port_util = 0.148

icnt_total_pkts_mem_to_simt=8220807
icnt_total_pkts_simt_to_mem=8054246
LD_mem_lat_dist  0 0 0 0 0 0 0 0 0 0 0 0 0 0 0 0 0 0 0 0 0 0 0 0 0 0 0
ST_mem_lat_dist  0 0 0 0 0 0 0 0 0 0 0 0 0 0 0 0 0 0 0 0 0 0 0 0 0 0 0
----------------------------Interconnect-DETAILS--------------------------------
Class 0:
Packet latency average = 10.3079
	minimum = 6
	maximum = 490
Network latency average = 9.82334
	minimum = 6
	maximum = 476
Slowest packet = 966674
Flit latency average = 7.67752
	minimum = 6
	maximum = 472
Slowest flit = 3482383
Fragmentation average = 0.0185884
	minimum = 0
	maximum = 394
Injected packet rate average = 0.0392513
	minimum = 0.0363818 (at node 18)
	maximum = 0.0485079 (at node 5)
Accepted packet rate average = 0.0392513
	minimum = 0.027638 (at node 9)
	maximum = 0.0531385 (at node 25)
Injected flit rate average = 0.130381
	minimum = 0.104718 (at node 9)
	maximum = 0.158105 (at node 25)
Accepted flit rate average= 0.130381
	minimum = 0.113714 (at node 9)
	maximum = 0.145945 (at node 25)
Injected packet length average = 3.32171
Accepted packet length average = 3.32171
Total in-flight flits = 0 (0 measured)
====== Overall Traffic Statistics ======
====== Traffic class 0 ======
Packet latency average = 10.6302 (2 samples)
	minimum = 6 (2 samples)
	maximum = 499.5 (2 samples)
Network latency average = 10.1007 (2 samples)
	minimum = 6 (2 samples)
	maximum = 475.5 (2 samples)
Flit latency average = 7.82594 (2 samples)
	minimum = 6 (2 samples)
	maximum = 471.5 (2 samples)
Fragmentation average = 0.0426157 (2 samples)
	minimum = 0 (2 samples)
	maximum = 390.5 (2 samples)
Injected packet rate average = 0.0321626 (2 samples)
	minimum = 0.0277657 (2 samples)
	maximum = 0.0420827 (2 samples)
Accepted packet rate average = 0.0321626 (2 samples)
	minimum = 0.0210256 (2 samples)
	maximum = 0.0458307 (2 samples)
Injected flit rate average = 0.110348 (2 samples)
	minimum = 0.0932286 (2 samples)
	maximum = 0.133331 (2 samples)
Accepted flit rate average = 0.110348 (2 samples)
	minimum = 0.0901799 (2 samples)
	maximum = 0.131655 (2 samples)
Injected packet size average = 3.43095 (2 samples)
Accepted packet size average = 3.43095 (2 samples)
Hops average = 1 (2 samples)
----------------------------END-of-Interconnect-DETAILS-------------------------


gpgpu_simulation_time = 0 days, 0 hrs, 49 min, 46 sec (2986 sec)
gpgpu_simulation_rate = 334603 (inst/sec)
gpgpu_simulation_rate = 1695 (cycle/sec)
GPGPU-Sim: synchronize waiting for inactive GPU simulation
GPGPU-Sim API: Stream Manager State
GPGPU-Sim: detected inactive GPU simulation thread
v  =    224.32334900
Lb =     21.34812355
Time (Greeks)   : 2096803.500000 msec

Press ENTER to exit...
