

        *** GPGPU-Sim Simulator Version 3.2.2  [build 0] ***


GPGPU-Sim PTX: simulation mode 0 (can change with PTX_SIM_MODE_FUNC environment variable:
               1=functional simulation only, 0=detailed performance simulator)
GPGPU-Sim: Configuration options:

-network_mode                           1 # Interconnection network mode
-inter_config_file   config_fermi_islip.icnt # Interconnection network config file
-gpgpu_ptx_use_cuobjdump                    1 # Use cuobjdump to extract ptx and sass from binaries
-gpgpu_experimental_lib_support                    0 # Try to extract code from cuda libraries [Broken because of unknown cudaGetExportTable]
-gpgpu_ptx_convert_to_ptxplus                    0 # Convert SASS (native ISA) to ptxplus and run ptxplus
-gpgpu_ptx_force_max_capability                   20 # Force maximum compute capability
-gpgpu_ptx_inst_debug_to_file                    0 # Dump executed instructions' debug information to file
-gpgpu_ptx_inst_debug_file       inst_debug.txt # Executed instructions' debug output file
-gpgpu_ptx_inst_debug_thread_uid                    1 # Thread UID for executed instructions' debug output
-gpgpu_simd_model                       1 # 1 = post-dominator
-gpgpu_shader_core_pipeline              1536:32 # shader core pipeline config, i.e., {<nthread>:<warpsize>}
-gpgpu_tex_cache:l1  4:128:24,L:R:m:N:L,F:128:4,128:2 # per-shader L1 texture cache  (READ-ONLY) config  {<nsets>:<bsize>:<assoc>,<rep>:<wr>:<alloc>:<wr_alloc>,<mshr>:<N>:<merge>,<mq>:<rf>}
-gpgpu_const_cache:l1 64:64:2,L:R:f:N:L,A:2:32,4 # per-shader L1 constant memory cache  (READ-ONLY) config  {<nsets>:<bsize>:<assoc>,<rep>:<wr>:<alloc>:<wr_alloc>,<mshr>:<N>:<merge>,<mq>} 
-gpgpu_cache:il1     4:128:4,L:R:f:N:L,A:2:32,4 # shader L1 instruction cache config  {<nsets>:<bsize>:<assoc>,<rep>:<wr>:<alloc>:<wr_alloc>,<mshr>:<N>:<merge>,<mq>} 
-gpgpu_cache:dl1     32:128:1,L:L:m:N:H,A:32:8,8 # per-shader L1 data cache config  {<nsets>:<bsize>:<assoc>,<rep>:<wr>:<alloc>:<wr_alloc>,<mshr>:<N>:<merge>,<mq> | none}
-gpgpu_cache:dl1PrefL1                 none # per-shader L1 data cache config  {<nsets>:<bsize>:<assoc>,<rep>:<wr>:<alloc>:<wr_alloc>,<mshr>:<N>:<merge>,<mq> | none}
-gpgpu_cache:dl1PreShared                 none # per-shader L1 data cache config  {<nsets>:<bsize>:<assoc>,<rep>:<wr>:<alloc>:<wr_alloc>,<mshr>:<N>:<merge>,<mq> | none}
-gmem_skip_L1D                          0 # global memory access skip L1D cache (implements -Xptxas -dlcm=cg, default=no skip)
-gpgpu_perfect_mem                      0 # enable perfect memory mode (no cache miss)
-n_regfile_gating_group                    4 # group of lanes that should be read/written together)
-gpgpu_clock_gated_reg_file                    0 # enable clock gated reg file for power calculations
-gpgpu_clock_gated_lanes                    0 # enable clock gated lanes for power calculations
-gpgpu_shader_registers                32768 # Number of registers per shader core. Limits number of concurrent CTAs. (default 8192)
-gpgpu_shader_cta                       8 # Maximum number of concurrent CTAs in shader (default 8)
-gpgpu_num_cta_barriers                   16 # Maximum number of named barriers per CTA (default 16)
-gpgpu_n_clusters                      15 # number of processing clusters
-gpgpu_n_cores_per_cluster                    1 # number of simd cores per cluster
-gpgpu_n_cluster_ejection_buffer_size                    8 # number of packets in ejection buffer
-gpgpu_n_ldst_response_buffer_size                    2 # number of response packets in ld/st unit ejection buffer
-gpgpu_shmem_size                   16384 # Size of shared memory per shader core (default 16kB)
-gpgpu_shmem_size                   49152 # Size of shared memory per shader core (default 16kB)
-gpgpu_shmem_size_PrefL1                16384 # Size of shared memory per shader core (default 16kB)
-gpgpu_shmem_size_PrefShared                16384 # Size of shared memory per shader core (default 16kB)
-gpgpu_shmem_num_banks                   32 # Number of banks in the shared memory in each shader core (default 16)
-gpgpu_shmem_limited_broadcast                    0 # Limit shared memory to do one broadcast per cycle (default on)
-gpgpu_shmem_warp_parts                    1 # Number of portions a warp is divided into for shared memory bank conflict check 
-gpgpu_warpdistro_shader                   -1 # Specify which shader core to collect the warp size distribution from
-gpgpu_warp_issue_shader                    0 # Specify which shader core to collect the warp issue distribution from
-gpgpu_local_mem_map                    1 # Mapping from local memory space address to simulated GPU physical address space (default = enabled)
-gpgpu_num_reg_banks                   16 # Number of register banks (default = 8)
-gpgpu_reg_bank_use_warp_id                    0 # Use warp ID in mapping registers to banks (default = off)
-gpgpu_operand_collector_num_units_sp                    6 # number of collector units (default = 4)
-gpgpu_operand_collector_num_units_sfu                    8 # number of collector units (default = 4)
-gpgpu_operand_collector_num_units_mem                    2 # number of collector units (default = 2)
-gpgpu_operand_collector_num_units_gen                    0 # number of collector units (default = 0)
-gpgpu_operand_collector_num_in_ports_sp                    2 # number of collector unit in ports (default = 1)
-gpgpu_operand_collector_num_in_ports_sfu                    1 # number of collector unit in ports (default = 1)
-gpgpu_operand_collector_num_in_ports_mem                    1 # number of collector unit in ports (default = 1)
-gpgpu_operand_collector_num_in_ports_gen                    0 # number of collector unit in ports (default = 0)
-gpgpu_operand_collector_num_out_ports_sp                    2 # number of collector unit in ports (default = 1)
-gpgpu_operand_collector_num_out_ports_sfu                    1 # number of collector unit in ports (default = 1)
-gpgpu_operand_collector_num_out_ports_mem                    1 # number of collector unit in ports (default = 1)
-gpgpu_operand_collector_num_out_ports_gen                    0 # number of collector unit in ports (default = 0)
-gpgpu_coalesce_arch                   13 # Coalescing arch (default = 13, anything else is off for now)
-gpgpu_num_sched_per_core                    2 # Number of warp schedulers per core
-gpgpu_max_insn_issue_per_warp                    1 # Max number of instructions that can be issued per warp in one cycle by scheduler
-gpgpu_simt_core_sim_order                    1 # Select the simulation order of cores in a cluster (0=Fix, 1=Round-Robin)
-gpgpu_pipeline_widths        2,1,1,2,1,1,2 # Pipeline widths ID_OC_SP,ID_OC_SFU,ID_OC_MEM,OC_EX_SP,OC_EX_SFU,OC_EX_MEM,EX_WB
-gpgpu_num_sp_units                     2 # Number of SP units (default=1)
-gpgpu_num_sfu_units                    1 # Number of SF units (default=1)
-gpgpu_num_mem_units                    1 # Number if ldst units (default=1) WARNING: not hooked up to anything
-gpgpu_scheduler                      gto # Scheduler configuration: < lrr | gto | two_level_active > If two_level_active:<num_active_warps>:<inner_prioritization>:<outer_prioritization>For complete list of prioritization values see shader.h enum scheduler_prioritization_typeDefault: gto
-gpgpu_dram_scheduler                    1 # 0 = fifo, 1 = FR-FCFS (defaul)
-gpgpu_dram_partition_queues              8:8:8:8 # i2$:$2d:d2$:$2i
-l2_ideal                               0 # Use a ideal L2 cache that always hit
-gpgpu_cache:dl2     64:128:8,L:B:m:W:L,A:32:4,4:0,32 # unified banked L2 data cache config  {<nsets>:<bsize>:<assoc>,<rep>:<wr>:<alloc>:<wr_alloc>,<mshr>:<N>:<merge>,<mq>}
-gpgpu_cache:dl2_texture_only                    0 # L2 cache used for texture only
-gpgpu_n_mem                            6 # number of memory modules (e.g. memory controllers) in gpu
-gpgpu_n_sub_partition_per_mchannel                    2 # number of memory subpartition in each memory module
-gpgpu_n_mem_per_ctrlr                    2 # number of memory chips per memory controller
-gpgpu_memlatency_stat                   14 # track and display latency statistics 0x2 enables MC, 0x4 enables queue logs
-gpgpu_frfcfs_dram_sched_queue_size                   16 # 0 = unlimited (default); # entries per chip
-gpgpu_dram_return_queue_size                  116 # 0 = unlimited (default); # entries per chip
-gpgpu_dram_buswidth                    4 # default = 4 bytes (8 bytes per cycle at DDR)
-gpgpu_dram_burst_length                    8 # Burst length of each DRAM request (default = 4 data bus cycle)
-dram_data_command_freq_ratio                    4 # Frequency ratio between DRAM data bus and command bus (default = 2 times, i.e. DDR)
-gpgpu_dram_timing_opt nbk=16:CCD=2:RRD=6:RCD=12:RAS=28:RP=12:RC=40: CL=12:WL=4:CDLR=5:WR=12:nbkgrp=4:CCDL=3:RTPL=2 # DRAM timing parameters = {nbk:tCCD:tRRD:tRCD:tRAS:tRP:tRC:CL:WL:tCDLR:tWR:nbkgrp:tCCDL:tRTPL}
-rop_latency                          120 # ROP queue latency (default 85)
-dram_latency                         100 # DRAM latency (default 30)
-gpgpu_mem_addr_mapping dramid@8;00000000.00000000.00000000.00000000.0000RRRR.RRRRRRRR.BBBCCCCB.CCSSSSSS # mapping memory address to dram model {dramid@<start bit>;<memory address map>}
-gpgpu_mem_addr_test                    0 # run sweep test to check address mapping for aliased address
-gpgpu_mem_address_mask                    1 # 0 = old addressing mask, 1 = new addressing mask, 2 = new add. mask + flipped bank sel and chip sel bits
-gpuwattch_xml_file  gpuwattch_gtx480.xml # GPUWattch XML file
-power_simulation_enabled                    1 # Turn on power simulator (1=On, 0=Off)
-power_per_cycle_dump                    0 # Dump detailed power output each cycle
-power_trace_enabled                    0 # produce a file for the power trace (1=On, 0=Off)
-power_trace_zlevel                     6 # Compression level of the power trace output log (0=no comp, 9=highest)
-steady_power_levels_enabled                    0 # produce a file for the steady power levels (1=On, 0=Off)
-steady_state_definition                  8:4 # allowed deviation:number of samples
-gpgpu_max_cycle                        0 # terminates gpu simulation early (0 = no limit)
-gpgpu_max_insn                         0 # terminates gpu simulation early (0 = no limit)
-gpgpu_max_cta                          0 # terminates gpu simulation early (0 = no limit)
-gpgpu_runtime_stat                   500 # display runtime statistics such as dram utilization {<freq>:<flag>}
-liveness_message_freq                    1 # Minimum number of seconds between simulation liveness messages (0 = always print)
-gpgpu_flush_l1_cache                    0 # Flush L1 cache at the end of each kernel call
-gpgpu_flush_l2_cache                    0 # Flush L2 cache at the end of each kernel call
-gpgpu_deadlock_detect                    1 # Stop the simulation at deadlock (1=on (default), 0=off)
-gpgpu_ptx_instruction_classification                    0 # if enabled will classify ptx instruction types per kernel (Max 255 kernels now)
-gpgpu_ptx_sim_mode                     0 # Select between Performance (default) or Functional simulation (1)
-gpgpu_clock_domains 700.0:700.0:700.0:924.0 # Clock Domain Frequencies in MhZ {<Core Clock>:<ICNT Clock>:<L2 Clock>:<DRAM Clock>}
-gpgpu_max_concurrent_kernel                    8 # maximum kernels that can run concurrently on GPU
-gpgpu_cflog_interval                    0 # Interval between each snapshot in control flow logger
-visualizer_enabled                     0 # Turn on visualizer output (1=On, 0=Off)
-visualizer_outputfile                 NULL # Specifies the output log file for visualizer
-visualizer_zlevel                      6 # Compression level of the visualizer output log (0=no comp, 9=highest)
-trace_enabled                          0 # Turn on traces
-trace_components                    none # comma seperated list of traces to enable. Complete list found in trace_streams.tup. Default none
-trace_sampling_core                    0 # The core which is printed using CORE_DPRINTF. Default 0
-trace_sampling_memory_partition                   -1 # The memory partition which is printed using MEMPART_DPRINTF. Default -1 (i.e. all)
-enable_ptx_file_line_stats                    1 # Turn on PTX source line statistic profiling. (1 = On)
-ptx_line_stats_filename gpgpu_inst_stats.txt # Output file for PTX source line statistics.
-save_embedded_ptx                      0 # saves ptx files embedded in binary as <n>.ptx
-keep                                   0 # keep intermediate files created by GPGPU-Sim when interfacing with external programs
-gpgpu_ptx_save_converted_ptxplus                    0 # Saved converted ptxplus to a file
-ptx_opcode_latency_int         4,13,4,5,145 # Opcode latencies for integers <ADD,MAX,MUL,MAD,DIV>Default 1,1,19,25,145
-ptx_opcode_latency_fp          4,13,4,5,39 # Opcode latencies for single precision floating points <ADD,MAX,MUL,MAD,DIV>Default 1,1,1,1,30
-ptx_opcode_latency_dp         8,19,8,8,330 # Opcode latencies for double precision floating points <ADD,MAX,MUL,MAD,DIV>Default 8,8,8,8,335
-ptx_opcode_initiation_int            1,2,2,1,8 # Opcode initiation intervals for integers <ADD,MAX,MUL,MAD,DIV>Default 1,1,4,4,32
-ptx_opcode_initiation_fp            1,2,1,1,4 # Opcode initiation intervals for single precision floating points <ADD,MAX,MUL,MAD,DIV>Default 1,1,1,1,5
-ptx_opcode_initiation_dp         8,16,8,8,130 # Opcode initiation intervals for double precision floating points <ADD,MAX,MUL,MAD,DIV>Default 8,8,8,8,130
DRAM Timing Options:
nbk                                    16 # number of banks
CCD                                     2 # column to column delay
RRD                                     6 # minimal delay between activation of rows in different banks
RCD                                    12 # row to column delay
RAS                                    28 # time needed to activate row
RP                                     12 # time needed to precharge (deactivate) row
RC                                     40 # row cycle time
CDLR                                    5 # switching from write to read (changes tWTR)
WR                                     12 # last data-in to row precharge
CL                                     12 # CAS latency
WL                                      4 # Write latency
nbkgrp                                  4 # number of bank groups
CCDL                                    3 # column to column delay between accesses to different bank groups
RTPL                                    2 # read to precharge delay between accesses to different bank groups
Total number of memory sub partition = 12
addr_dec_mask[CHIP]  = 0000000000000000 	high:64 low:0
addr_dec_mask[BK]    = 000000000000e100 	high:16 low:8
addr_dec_mask[ROW]   = 000000000fff0000 	high:28 low:16
addr_dec_mask[COL]   = 0000000000001eff 	high:13 low:0
addr_dec_mask[BURST] = 000000000000003f 	high:6 low:0
sub_partition_id_mask = 0000000000000100
GPGPU-Sim uArch: clock freqs: 700000000.000000:700000000.000000:700000000.000000:924000000.000000
GPGPU-Sim uArch: clock periods: 0.00000000142857142857:0.00000000142857142857:0.00000000142857142857:0.00000000108225108225
*** Initializing Memory Statistics ***
GPGPU-Sim uArch: interconnect node map (shaderID+MemID to icntID)
GPGPU-Sim uArch: Memory nodes ID start from index: 15
GPGPU-Sim uArch:    0   1   2   3   4
GPGPU-Sim uArch:    5   6   7   8   9
GPGPU-Sim uArch:   10  11  12  13  14
GPGPU-Sim uArch:   15  16  17  18  19
GPGPU-Sim uArch:   20  21  22  23  24
GPGPU-Sim uArch:   25  26
GPGPU-Sim uArch: interconnect node reverse map (icntID to shaderID+MemID)
GPGPU-Sim uArch: Memory nodes start from ID: 15
GPGPU-Sim uArch:    0   1   2   3   4
GPGPU-Sim uArch:    5   6   7   8   9
GPGPU-Sim uArch:   10  11  12  13  14
GPGPU-Sim uArch:   15  16  17  18  19
GPGPU-Sim uArch:   20  21  22  23  24
GPGPU-Sim uArch:   25  26
20268b35c91b7ed3425c558353ee2ace  /home/scratch/adwait/applications/benchmarks/CUDA/TRA/gpgpu_ptx_sim__TRA
GPGPU-Sim uArch: performance model initialization complete.
GPGPU-Sim PTX: __cudaRegisterFatBinary, fat_cubin_handle = 1, filename=transpose.cu
self exe links to: /home/scratch/adwait/applications/benchmarks/CUDA/TRA/gpgpu_ptx_sim__TRA
Running md5sum using "md5sum /home/scratch/adwait/applications/benchmarks/CUDA/TRA/gpgpu_ptx_sim__TRA "
Running cuobjdump using "$CUDA_INSTALL_PATH/bin/cuobjdump -ptx -elf -sass /home/scratch/adwait/applications/benchmarks/CUDA/TRA/gpgpu_ptx_sim__TRA > _cuobjdump_complete_output_xb2V4f"
Parsing file _cuobjdump_complete_output_xb2V4f
######### cuobjdump parser ########
## Adding new section ELF
Adding arch: sm_20
Adding identifier: transpose.cu
## Adding new section PTX
Adding ptx filename: _cuobjdump_1.ptx
Adding arch: sm_20
Adding identifier: transpose.cu
Done parsing!!!
GPGPU-Sim PTX: __cudaRegisterFunction _Z15transpose_naivePfS_ii : hostFun 0x0x4048d7, fat_cubin_handle = 1
GPGPU-Sim PTX: allocating shared region for "__cuda___cuda_local_var_42723_32_non_const_block24" from 0x0 to 0x440 (shared memory space)
GPGPU-Sim PTX: instruction assembly for function '_Z9transposePfS_ii'...   done.
GPGPU-Sim PTX: finding reconvergence points for '_Z9transposePfS_ii'...
GPGPU-Sim PTX: Finding dominators for '_Z9transposePfS_ii'...
GPGPU-Sim PTX: Finding immediate dominators for '_Z9transposePfS_ii'...
GPGPU-Sim PTX: Finding postdominators for '_Z9transposePfS_ii'...
GPGPU-Sim PTX: Finding immediate postdominators for '_Z9transposePfS_ii'...
GPGPU-Sim PTX: pre-decoding instructions for '_Z9transposePfS_ii'...
GPGPU-Sim PTX: reconvergence points for _Z9transposePfS_ii...
GPGPU-Sim PTX:  1 (potential) branch divergence @  PC=0x088 (_1.ptx:81) @%p1 bra $Lt_0_2306;
GPGPU-Sim PTX:    immediate post dominator      @  PC=0x108 (_1.ptx:99) mov.u64 %rd1, __cuda___cuda_local_var_42723_32_non_const_block24;
GPGPU-Sim PTX:  2 (potential) branch divergence @  PC=0x160 (_1.ptx:111) @%p2 bra $Lt_0_2818;
GPGPU-Sim PTX:    immediate post dominator      @  PC=0x1d8 (_1.ptx:129) exit;
GPGPU-Sim PTX: ... end of reconvergence points for _Z9transposePfS_ii
GPGPU-Sim PTX: ... done pre-decoding instructions for '_Z9transposePfS_ii'.
GPGPU-Sim PTX: instruction assembly for function '_Z15transpose_naivePfS_ii'...   done.
GPGPU-Sim PTX: finding reconvergence points for '_Z15transpose_naivePfS_ii'...
GPGPU-Sim PTX: Finding dominators for '_Z15transpose_naivePfS_ii'...
GPGPU-Sim PTX: Finding immediate dominators for '_Z15transpose_naivePfS_ii'...
GPGPU-Sim PTX: Finding postdominators for '_Z15transpose_naivePfS_ii'...
GPGPU-Sim PTX: Finding immediate postdominators for '_Z15transpose_naivePfS_ii'...
GPGPU-Sim PTX: pre-decoding instructions for '_Z15transpose_naivePfS_ii'...
GPGPU-Sim PTX: reconvergence points for _Z15transpose_naivePfS_ii...
GPGPU-Sim PTX:  1 (potential) branch divergence @  PC=0x278 (_1.ptx:164) @%p1 bra $Lt_1_1282;
GPGPU-Sim PTX:    immediate post dominator      @  PC=0x2f0 (_1.ptx:182) exit;
GPGPU-Sim PTX: ... end of reconvergence points for _Z15transpose_naivePfS_ii
GPGPU-Sim PTX: ... done pre-decoding instructions for '_Z15transpose_naivePfS_ii'.
GPGPU-Sim PTX: finished parsing EMBEDDED .ptx file _1.ptx
Adding _cuobjdump_1.ptx with cubin handle 1
GPGPU-Sim PTX: extracting embedded .ptx to temporary file "_ptx_vQ7AO7"
Running: cat _ptx_vQ7AO7 | sed 's/.version 1.5/.version 1.4/' | sed 's/, texmode_independent//' | sed 's/\(\.extern \.const\[1\] .b8 \w\+\)\[\]/\1\[1\]/' | sed 's/const\[.\]/const\[0\]/g' > _ptx2_71mvFZ
GPGPU-Sim PTX: generating ptxinfo using "$CUDA_INSTALL_PATH/bin/ptxas --gpu-name=sm_20 -v _ptx2_71mvFZ --output-file  /dev/null 2> _ptx_vQ7AO7info"
GPGPU-Sim PTX: Kernel '_Z15transpose_naivePfS_ii' : regs=8, lmem=0, smem=0, cmem=56
GPGPU-Sim PTX: Kernel '_Z9transposePfS_ii' : regs=9, lmem=0, smem=1088, cmem=56
GPGPU-Sim PTX: removing ptxinfo using "rm -f _ptx_vQ7AO7 _ptx2_71mvFZ _ptx_vQ7AO7info"
GPGPU-Sim PTX: loading globals with explicit initializers... 
GPGPU-Sim PTX: finished loading globals (0 bytes total).
GPGPU-Sim PTX: loading constants with explicit initializers...  done.
GPGPU-Sim PTX: __cudaRegisterFunction _Z9transposePfS_ii : hostFun 0x0x4047e7, fat_cubin_handle = 1

GPGPU-Sim PTX: cudaLaunch for 0x0x4048d7 (mode=performance simulation) on stream 0
GPGPU-Sim PTX: pushing kernel '_Z15transpose_naivePfS_ii' to stream 0, gridDim= (16,256,1) blockDim = (16,16,1) 
kernel '_Z15transpose_naivePfS_ii' transfer to GPU hardware scheduler
GPGPU-Sim uArch: Shader 1 bind to kernel 1 '_Z15transpose_naivePfS_ii'
GPGPU-Sim uArch: CTA/core = 6, limited by: threads
GPGPU-Sim uArch: core:  1, cta: 0 initialized @(1,0)
GPGPU-Sim uArch: Shader 2 bind to kernel 1 '_Z15transpose_naivePfS_ii'
GPGPU-Sim uArch: core:  2, cta: 0 initialized @(1,0)
GPGPU-Sim uArch: Shader 3 bind to kernel 1 '_Z15transpose_naivePfS_ii'
GPGPU-Sim uArch: core:  3, cta: 0 initialized @(1,0)
GPGPU-Sim uArch: Shader 4 bind to kernel 1 '_Z15transpose_naivePfS_ii'
GPGPU-Sim uArch: core:  4, cta: 0 initialized @(1,0)
GPGPU-Sim uArch: Shader 5 bind to kernel 1 '_Z15transpose_naivePfS_ii'
GPGPU-Sim uArch: core:  5, cta: 0 initialized @(1,0)
GPGPU-Sim uArch: Shader 6 bind to kernel 1 '_Z15transpose_naivePfS_ii'
GPGPU-Sim uArch: core:  6, cta: 0 initialized @(1,0)
GPGPU-Sim uArch: Shader 7 bind to kernel 1 '_Z15transpose_naivePfS_ii'
GPGPU-Sim uArch: core:  7, cta: 0 initialized @(1,0)
GPGPU-Sim uArch: Shader 8 bind to kernel 1 '_Z15transpose_naivePfS_ii'
GPGPU-Sim uArch: core:  8, cta: 0 initialized @(1,0)
GPGPU-Sim uArch: Shader 9 bind to kernel 1 '_Z15transpose_naivePfS_ii'
GPGPU-Sim uArch: core:  9, cta: 0 initialized @(1,0)
GPGPU-Sim uArch: Shader 10 bind to kernel 1 '_Z15transpose_naivePfS_ii'
GPGPU-Sim uArch: core: 10, cta: 0 initialized @(1,0)
GPGPU-Sim uArch: Shader 11 bind to kernel 1 '_Z15transpose_naivePfS_ii'
GPGPU-Sim uArch: core: 11, cta: 0 initialized @(1,0)
GPGPU-Sim uArch: Shader 12 bind to kernel 1 '_Z15transpose_naivePfS_ii'
GPGPU-Sim uArch: core: 12, cta: 0 initialized @(1,0)
GPGPU-Sim uArch: Shader 13 bind to kernel 1 '_Z15transpose_naivePfS_ii'
GPGPU-Sim uArch: core: 13, cta: 0 initialized @(1,0)
GPGPU-Sim uArch: Shader 14 bind to kernel 1 '_Z15transpose_naivePfS_ii'
GPGPU-Sim uArch: core: 14, cta: 0 initialized @(1,0)
GPGPU-Sim uArch: Shader 0 bind to kernel 1 '_Z15transpose_naivePfS_ii'
GPGPU-Sim uArch: core:  0, cta: 0 initialized @(1,0)
GPGPU-Sim uArch: core:  1, cta: 1 initialized @(2,0)
GPGPU-Sim uArch: core:  2, cta: 1 initialized @(2,0)
GPGPU-Sim uArch: core:  3, cta: 1 initialized @(2,0)
GPGPU-Sim uArch: core:  4, cta: 1 initialized @(2,0)
GPGPU-Sim uArch: core:  5, cta: 1 initialized @(2,0)
GPGPU-Sim uArch: core:  6, cta: 1 initialized @(2,0)
GPGPU-Sim uArch: core:  7, cta: 1 initialized @(2,0)
GPGPU-Sim uArch: core:  8, cta: 1 initialized @(2,0)
GPGPU-Sim uArch: core:  9, cta: 1 initialized @(2,0)
GPGPU-Sim uArch: core: 10, cta: 1 initialized @(2,0)
GPGPU-Sim uArch: core: 11, cta: 1 initialized @(2,0)
GPGPU-Sim uArch: core: 12, cta: 1 initialized @(2,0)
GPGPU-Sim uArch: core: 13, cta: 1 initialized @(2,0)
GPGPU-Sim uArch: core: 14, cta: 1 initialized @(2,0)
GPGPU-Sim uArch: core:  0, cta: 1 initialized @(2,0)
GPGPU-Sim uArch: core:  1, cta: 2 initialized @(3,0)
GPGPU-Sim uArch: core:  2, cta: 2 initialized @(3,0)
GPGPU-Sim uArch: core:  3, cta: 2 initialized @(3,0)
GPGPU-Sim uArch: core:  4, cta: 2 initialized @(3,0)
GPGPU-Sim uArch: core:  5, cta: 2 initialized @(3,0)
GPGPU-Sim uArch: core:  6, cta: 2 initialized @(3,0)
GPGPU-Sim uArch: core:  7, cta: 2 initialized @(3,0)
GPGPU-Sim uArch: core:  8, cta: 2 initialized @(3,0)
GPGPU-Sim uArch: core:  9, cta: 2 initialized @(3,0)
GPGPU-Sim uArch: core: 10, cta: 2 initialized @(3,0)
GPGPU-Sim uArch: core: 11, cta: 2 initialized @(3,0)
GPGPU-Sim uArch: core: 12, cta: 2 initialized @(3,0)
GPGPU-Sim uArch: core: 13, cta: 2 initialized @(3,0)
GPGPU-Sim uArch: core: 14, cta: 2 initialized @(3,0)
GPGPU-Sim uArch: core:  0, cta: 2 initialized @(3,0)
GPGPU-Sim uArch: core:  1, cta: 3 initialized @(4,0)
GPGPU-Sim uArch: core:  2, cta: 3 initialized @(4,0)
GPGPU-Sim uArch: core:  3, cta: 3 initialized @(4,0)
GPGPU-Sim uArch: core:  4, cta: 3 initialized @(4,0)
GPGPU-Sim uArch: core:  5, cta: 3 initialized @(4,0)
GPGPU-Sim uArch: core:  6, cta: 3 initialized @(4,0)
GPGPU-Sim uArch: core:  7, cta: 3 initialized @(4,0)
GPGPU-Sim uArch: core:  8, cta: 3 initialized @(4,0)
GPGPU-Sim uArch: core:  9, cta: 3 initialized @(4,0)
GPGPU-Sim uArch: core: 10, cta: 3 initialized @(4,0)
GPGPU-Sim uArch: core: 11, cta: 3 initialized @(4,0)
GPGPU-Sim uArch: core: 12, cta: 3 initialized @(4,0)
GPGPU-Sim uArch: core: 13, cta: 3 initialized @(4,0)
GPGPU-Sim uArch: core: 14, cta: 3 initialized @(4,0)
GPGPU-Sim uArch: core:  0, cta: 3 initialized @(4,0)
GPGPU-Sim uArch: core:  1, cta: 4 initialized @(5,0)
GPGPU-Sim uArch: core:  2, cta: 4 initialized @(5,0)
GPGPU-Sim uArch: core:  3, cta: 4 initialized @(5,0)
GPGPU-Sim uArch: core:  4, cta: 4 initialized @(5,0)
GPGPU-Sim uArch: core:  5, cta: 4 initialized @(5,0)
GPGPU-Sim uArch: core:  6, cta: 4 initialized @(5,0)
GPGPU-Sim uArch: core:  7, cta: 4 initialized @(5,0)
GPGPU-Sim uArch: core:  8, cta: 4 initialized @(5,0)
GPGPU-Sim uArch: core:  9, cta: 4 initialized @(5,0)
GPGPU-Sim uArch: core: 10, cta: 4 initialized @(5,0)
GPGPU-Sim uArch: core: 11, cta: 4 initialized @(5,0)
GPGPU-Sim uArch: core: 12, cta: 4 initialized @(5,0)
GPGPU-Sim uArch: core: 13, cta: 4 initialized @(5,0)
GPGPU-Sim uArch: core: 14, cta: 4 initialized @(5,0)
GPGPU-Sim uArch: core:  0, cta: 4 initialized @(5,0)
GPGPU-Sim uArch: core:  1, cta: 5 initialized @(6,0)
GPGPU-Sim uArch: core:  2, cta: 5 initialized @(6,0)
GPGPU-Sim uArch: core:  3, cta: 5 initialized @(6,0)
GPGPU-Sim uArch: core:  4, cta: 5 initialized @(6,0)
GPGPU-Sim uArch: core:  5, cta: 5 initialized @(6,0)
GPGPU-Sim uArch: core:  6, cta: 5 initialized @(6,0)
GPGPU-Sim uArch: core:  7, cta: 5 initialized @(6,0)
GPGPU-Sim uArch: core:  8, cta: 5 initialized @(6,0)
GPGPU-Sim uArch: core:  9, cta: 5 initialized @(6,0)
GPGPU-Sim uArch: core: 10, cta: 5 initialized @(6,0)
GPGPU-Sim uArch: core: 11, cta: 5 initialized @(6,0)
GPGPU-Sim uArch: core: 12, cta: 5 initialized @(6,0)
GPGPU-Sim uArch: core: 13, cta: 5 initialized @(6,0)
GPGPU-Sim uArch: core: 14, cta: 5 initialized @(6,0)
GPGPU-Sim uArch: core:  0, cta: 5 initialized @(6,0)
GPGPU-Sim uArch: cycles simulated: 500  inst.: 92000 (ipc=184.0) sim_rate=92000 (inst/sec) elapsed = 0:0:00:01 / Tue Apr 16 16:45:34 2019
GPGPU-Sim PTX: 100000 instructions simulated : ctaid=(0,5,0) tid=(15,9,0)
GPGPU-Sim PTX: 200000 instructions simulated : ctaid=(6,1,0) tid=(15,15,0)
GPGPU-Sim PTX: 300000 instructions simulated : ctaid=(1,1,0) tid=(15,11,0)
GPGPU-Sim PTX: 400000 instructions simulated : ctaid=(14,4,0) tid=(15,7,0)
GPGPU-Sim PTX: 500000 instructions simulated : ctaid=(7,2,0) tid=(15,7,0)
GPGPU-Sim uArch: cycles simulated: 1500  inst.: 520704 (ipc=347.1) sim_rate=260352 (inst/sec) elapsed = 0:0:00:02 / Tue Apr 16 16:45:35 2019
GPGPU-Sim PTX: 600000 instructions simulated : ctaid=(12,0,0) tid=(15,9,0)
GPGPU-Sim uArch: cycles simulated: 3500  inst.: 609280 (ipc=174.1) sim_rate=203093 (inst/sec) elapsed = 0:0:00:03 / Tue Apr 16 16:45:36 2019
GPGPU-Sim uArch: cycles simulated: 5000  inst.: 615904 (ipc=123.2) sim_rate=153976 (inst/sec) elapsed = 0:0:00:04 / Tue Apr 16 16:45:37 2019
GPGPU-Sim uArch: cycles simulated: 7000  inst.: 622656 (ipc=89.0) sim_rate=124531 (inst/sec) elapsed = 0:0:00:05 / Tue Apr 16 16:45:38 2019
GPGPU-Sim uArch: cycles simulated: 8500  inst.: 631552 (ipc=74.3) sim_rate=105258 (inst/sec) elapsed = 0:0:00:06 / Tue Apr 16 16:45:39 2019
GPGPU-Sim uArch: cycles simulated: 10500  inst.: 643392 (ipc=61.3) sim_rate=91913 (inst/sec) elapsed = 0:0:00:07 / Tue Apr 16 16:45:40 2019
GPGPU-Sim uArch: cycles simulated: 12500  inst.: 652864 (ipc=52.2) sim_rate=81608 (inst/sec) elapsed = 0:0:00:08 / Tue Apr 16 16:45:41 2019
GPGPU-Sim uArch: Shader 10 finished CTA #0 (13636,0), 5 CTAs running
GPGPU-Sim uArch: core: 10, cta: 0 initialized @(13637,0)
GPGPU-Sim uArch: Shader 11 finished CTA #0 (13875,0), 5 CTAs running
GPGPU-Sim uArch: core: 11, cta: 0 initialized @(13876,0)
GPGPU-Sim uArch: Shader 0 finished CTA #0 (13922,0), 5 CTAs running
GPGPU-Sim uArch: core:  0, cta: 0 initialized @(13923,0)
GPGPU-Sim uArch: Shader 6 finished CTA #0 (14301,0), 5 CTAs running
GPGPU-Sim uArch: core:  6, cta: 0 initialized @(14302,0)
GPGPU-Sim PTX: 700000 instructions simulated : ctaid=(13,5,0) tid=(15,7,0)
GPGPU-Sim uArch: Shader 8 finished CTA #0 (14542,0), 5 CTAs running
GPGPU-Sim uArch: core:  8, cta: 0 initialized @(14543,0)
GPGPU-Sim uArch: Shader 2 finished CTA #0 (14906,0), 5 CTAs running
GPGPU-Sim uArch: core:  2, cta: 0 initialized @(14907,0)
GPGPU-Sim uArch: cycles simulated: 15000  inst.: 683168 (ipc=45.5) sim_rate=75907 (inst/sec) elapsed = 0:0:00:09 / Tue Apr 16 16:45:42 2019
GPGPU-Sim uArch: Shader 9 finished CTA #0 (16337,0), 5 CTAs running
GPGPU-Sim uArch: core:  9, cta: 0 initialized @(16338,0)
GPGPU-Sim uArch: Shader 1 finished CTA #0 (16478,0), 5 CTAs running
GPGPU-Sim uArch: core:  1, cta: 0 initialized @(16479,0)
GPGPU-Sim uArch: Shader 4 finished CTA #0 (16903,0), 5 CTAs running
GPGPU-Sim uArch: core:  4, cta: 0 initialized @(16904,0)
GPGPU-Sim uArch: cycles simulated: 17000  inst.: 701056 (ipc=41.2) sim_rate=70105 (inst/sec) elapsed = 0:0:00:10 / Tue Apr 16 16:45:43 2019
GPGPU-Sim uArch: Shader 12 finished CTA #0 (17112,0), 5 CTAs running
GPGPU-Sim uArch: core: 12, cta: 0 initialized @(17113,0)
GPGPU-Sim uArch: Shader 5 finished CTA #0 (17182,0), 5 CTAs running
GPGPU-Sim uArch: core:  5, cta: 0 initialized @(17183,0)
GPGPU-Sim uArch: Shader 13 finished CTA #0 (17550,0), 5 CTAs running
GPGPU-Sim uArch: core: 13, cta: 0 initialized @(17551,0)
GPGPU-Sim uArch: Shader 3 finished CTA #0 (18804,0), 5 CTAs running
GPGPU-Sim uArch: core:  3, cta: 0 initialized @(18805,0)
GPGPU-Sim uArch: cycles simulated: 19000  inst.: 726912 (ipc=38.3) sim_rate=66082 (inst/sec) elapsed = 0:0:00:11 / Tue Apr 16 16:45:44 2019
GPGPU-Sim uArch: Shader 14 finished CTA #0 (19254,0), 5 CTAs running
GPGPU-Sim uArch: core: 14, cta: 0 initialized @(19255,0)
GPGPU-Sim uArch: Shader 7 finished CTA #0 (19853,0), 5 CTAs running
GPGPU-Sim uArch: core:  7, cta: 0 initialized @(19854,0)
GPGPU-Sim uArch: cycles simulated: 21000  inst.: 770432 (ipc=36.7) sim_rate=64202 (inst/sec) elapsed = 0:0:00:12 / Tue Apr 16 16:45:45 2019
GPGPU-Sim PTX: 800000 instructions simulated : ctaid=(5,1,0) tid=(15,7,0)
GPGPU-Sim uArch: Shader 11 finished CTA #1 (21689,0), 5 CTAs running
GPGPU-Sim uArch: core: 11, cta: 1 initialized @(21690,0)
GPGPU-Sim uArch: Shader 10 finished CTA #1 (21935,0), 5 CTAs running
GPGPU-Sim uArch: core: 10, cta: 1 initialized @(21936,0)
GPGPU-Sim uArch: Shader 9 finished CTA #1 (21996,0), 5 CTAs running
GPGPU-Sim uArch: core:  9, cta: 1 initialized @(21997,0)
GPGPU-Sim uArch: Shader 11 finished CTA #2 (22663,0), 5 CTAs running
GPGPU-Sim uArch: core: 11, cta: 2 initialized @(22664,0)
GPGPU-Sim uArch: cycles simulated: 23000  inst.: 802112 (ipc=34.9) sim_rate=61700 (inst/sec) elapsed = 0:0:00:13 / Tue Apr 16 16:45:46 2019
GPGPU-Sim uArch: Shader 14 finished CTA #1 (23138,0), 5 CTAs running
GPGPU-Sim uArch: core: 14, cta: 1 initialized @(23139,0)
GPGPU-Sim uArch: Shader 2 finished CTA #1 (23460,0), 5 CTAs running
GPGPU-Sim uArch: core:  2, cta: 1 initialized @(23461,0)
GPGPU-Sim uArch: Shader 13 finished CTA #1 (23520,0), 5 CTAs running
GPGPU-Sim uArch: core: 13, cta: 1 initialized @(23521,0)
GPGPU-Sim uArch: Shader 12 finished CTA #1 (23525,0), 5 CTAs running
GPGPU-Sim uArch: core: 12, cta: 1 initialized @(23526,0)
GPGPU-Sim uArch: Shader 1 finished CTA #1 (23563,0), 5 CTAs running
GPGPU-Sim uArch: core:  1, cta: 1 initialized @(23564,0)
GPGPU-Sim uArch: Shader 6 finished CTA #1 (23955,0), 5 CTAs running
GPGPU-Sim uArch: core:  6, cta: 1 initialized @(23956,0)
GPGPU-Sim uArch: Shader 0 finished CTA #1 (24155,0), 5 CTAs running
GPGPU-Sim uArch: core:  0, cta: 1 initialized @(24156,0)
GPGPU-Sim uArch: Shader 8 finished CTA #1 (24396,0), 5 CTAs running
GPGPU-Sim uArch: core:  8, cta: 1 initialized @(24397,0)
GPGPU-Sim uArch: Shader 4 finished CTA #1 (24481,0), 5 CTAs running
GPGPU-Sim uArch: core:  4, cta: 1 initialized @(24482,0)
GPGPU-Sim uArch: Shader 3 finished CTA #1 (24493,0), 5 CTAs running
GPGPU-Sim uArch: core:  3, cta: 1 initialized @(24494,0)
GPGPU-Sim PTX: 900000 instructions simulated : ctaid=(2,2,0) tid=(15,7,0)
GPGPU-Sim uArch: Shader 14 finished CTA #2 (24722,0), 5 CTAs running
GPGPU-Sim uArch: core: 14, cta: 2 initialized @(24723,0)
GPGPU-Sim uArch: cycles simulated: 25000  inst.: 883168 (ipc=35.3) sim_rate=63083 (inst/sec) elapsed = 0:0:00:14 / Tue Apr 16 16:45:47 2019
GPGPU-Sim uArch: Shader 7 finished CTA #1 (25394,0), 5 CTAs running
GPGPU-Sim uArch: core:  7, cta: 1 initialized @(25395,0)
GPGPU-Sim uArch: Shader 1 finished CTA #2 (25494,0), 5 CTAs running
GPGPU-Sim uArch: core:  1, cta: 2 initialized @(25495,0)
GPGPU-Sim uArch: Shader 6 finished CTA #2 (25624,0), 5 CTAs running
GPGPU-Sim uArch: core:  6, cta: 2 initialized @(25625,0)
GPGPU-Sim uArch: Shader 10 finished CTA #2 (25838,0), 5 CTAs running
GPGPU-Sim uArch: core: 10, cta: 2 initialized @(25839,0)
GPGPU-Sim uArch: Shader 12 finished CTA #2 (25975,0), 5 CTAs running
GPGPU-Sim uArch: core: 12, cta: 2 initialized @(25976,0)
GPGPU-Sim uArch: Shader 2 finished CTA #2 (26101,0), 5 CTAs running
GPGPU-Sim uArch: core:  2, cta: 2 initialized @(26102,0)
GPGPU-Sim uArch: Shader 8 finished CTA #2 (26545,0), 5 CTAs running
GPGPU-Sim uArch: core:  8, cta: 2 initialized @(26546,0)
GPGPU-Sim uArch: Shader 13 finished CTA #2 (26598,0), 5 CTAs running
GPGPU-Sim uArch: core: 13, cta: 2 initialized @(26599,0)
GPGPU-Sim uArch: Shader 9 finished CTA #2 (26982,0), 5 CTAs running
GPGPU-Sim uArch: core:  9, cta: 2 initialized @(26983,0)
GPGPU-Sim uArch: cycles simulated: 27000  inst.: 940736 (ipc=34.8) sim_rate=62715 (inst/sec) elapsed = 0:0:00:15 / Tue Apr 16 16:45:48 2019
GPGPU-Sim uArch: Shader 5 finished CTA #1 (27005,0), 5 CTAs running
GPGPU-Sim uArch: core:  5, cta: 1 initialized @(27006,0)
GPGPU-Sim uArch: Shader 0 finished CTA #2 (27183,0), 5 CTAs running
GPGPU-Sim uArch: core:  0, cta: 2 initialized @(27184,0)
GPGPU-Sim uArch: Shader 11 finished CTA #3 (27393,0), 5 CTAs running
GPGPU-Sim uArch: core: 11, cta: 3 initialized @(27394,0)
GPGPU-Sim PTX: 1000000 instructions simulated : ctaid=(0,8,0) tid=(15,13,0)
GPGPU-Sim uArch: Shader 4 finished CTA #2 (27794,0), 5 CTAs running
GPGPU-Sim uArch: core:  4, cta: 2 initialized @(27795,0)
GPGPU-Sim uArch: Shader 7 finished CTA #2 (27951,0), 5 CTAs running
GPGPU-Sim uArch: core:  7, cta: 2 initialized @(27952,0)
GPGPU-Sim uArch: Shader 14 finished CTA #3 (28111,0), 5 CTAs running
GPGPU-Sim uArch: core: 14, cta: 3 initialized @(28112,0)
GPGPU-Sim uArch: Shader 3 finished CTA #2 (28487,0), 5 CTAs running
GPGPU-Sim uArch: core:  3, cta: 2 initialized @(28488,0)
GPGPU-Sim uArch: Shader 2 finished CTA #3 (28895,0), 5 CTAs running
GPGPU-Sim uArch: core:  2, cta: 3 initialized @(28896,0)
GPGPU-Sim uArch: cycles simulated: 29000  inst.: 1006464 (ipc=34.7) sim_rate=62904 (inst/sec) elapsed = 0:0:00:16 / Tue Apr 16 16:45:49 2019
GPGPU-Sim uArch: Shader 12 finished CTA #3 (29100,0), 5 CTAs running
GPGPU-Sim uArch: core: 12, cta: 3 initialized @(29101,0)
GPGPU-Sim uArch: Shader 6 finished CTA #3 (29192,0), 5 CTAs running
GPGPU-Sim uArch: core:  6, cta: 3 initialized @(29193,0)
GPGPU-Sim uArch: Shader 13 finished CTA #3 (29482,0), 5 CTAs running
GPGPU-Sim uArch: core: 13, cta: 3 initialized @(29483,0)
GPGPU-Sim uArch: Shader 3 finished CTA #3 (29529,0), 5 CTAs running
GPGPU-Sim uArch: core:  3, cta: 3 initialized @(29530,0)
GPGPU-Sim uArch: Shader 9 finished CTA #3 (29710,0), 5 CTAs running
GPGPU-Sim uArch: core:  9, cta: 3 initialized @(29711,0)
GPGPU-Sim uArch: Shader 10 finished CTA #3 (29897,0), 5 CTAs running
GPGPU-Sim uArch: core: 10, cta: 3 initialized @(29898,0)
GPGPU-Sim uArch: Shader 3 finished CTA #4 (29942,0), 5 CTAs running
GPGPU-Sim uArch: core:  3, cta: 4 initialized @(29943,0)
GPGPU-Sim uArch: Shader 5 finished CTA #2 (29966,0), 5 CTAs running
GPGPU-Sim uArch: core:  5, cta: 2 initialized @(29967,0)
GPGPU-Sim uArch: Shader 0 finished CTA #3 (30018,0), 5 CTAs running
GPGPU-Sim uArch: core:  0, cta: 3 initialized @(30019,0)
GPGPU-Sim uArch: Shader 1 finished CTA #3 (30167,0), 5 CTAs running
GPGPU-Sim uArch: core:  1, cta: 3 initialized @(30168,0)
GPGPU-Sim uArch: Shader 14 finished CTA #4 (30279,0), 5 CTAs running
GPGPU-Sim uArch: core: 14, cta: 4 initialized @(30280,0)
GPGPU-Sim uArch: Shader 5 finished CTA #3 (30401,0), 5 CTAs running
GPGPU-Sim uArch: core:  5, cta: 3 initialized @(30402,0)
GPGPU-Sim PTX: 1100000 instructions simulated : ctaid=(14,7,0) tid=(15,9,0)
GPGPU-Sim uArch: Shader 7 finished CTA #3 (30626,0), 5 CTAs running
GPGPU-Sim uArch: core:  7, cta: 3 initialized @(30627,0)
GPGPU-Sim uArch: Shader 8 finished CTA #3 (30935,0), 5 CTAs running
GPGPU-Sim uArch: core:  8, cta: 3 initialized @(30936,0)
GPGPU-Sim uArch: cycles simulated: 31000  inst.: 1078176 (ipc=34.8) sim_rate=63422 (inst/sec) elapsed = 0:0:00:17 / Tue Apr 16 16:45:50 2019
GPGPU-Sim uArch: Shader 11 finished CTA #4 (31155,0), 5 CTAs running
GPGPU-Sim uArch: core: 11, cta: 4 initialized @(31156,0)
GPGPU-Sim uArch: Shader 9 finished CTA #4 (31243,0), 5 CTAs running
GPGPU-Sim uArch: core:  9, cta: 4 initialized @(31244,0)
GPGPU-Sim uArch: Shader 2 finished CTA #4 (31323,0), 5 CTAs running
GPGPU-Sim uArch: core:  2, cta: 4 initialized @(31324,0)
GPGPU-Sim uArch: Shader 1 finished CTA #4 (31700,0), 5 CTAs running
GPGPU-Sim uArch: core:  1, cta: 4 initialized @(31701,0)
GPGPU-Sim uArch: Shader 4 finished CTA #3 (31863,0), 5 CTAs running
GPGPU-Sim uArch: core:  4, cta: 3 initialized @(31864,0)
GPGPU-Sim uArch: Shader 6 finished CTA #4 (32377,0), 5 CTAs running
GPGPU-Sim uArch: core:  6, cta: 4 initialized @(32378,0)
GPGPU-Sim uArch: cycles simulated: 33000  inst.: 1131616 (ipc=34.3) sim_rate=62867 (inst/sec) elapsed = 0:0:00:18 / Tue Apr 16 16:45:51 2019
GPGPU-Sim uArch: Shader 0 finished CTA #4 (33096,0), 5 CTAs running
GPGPU-Sim uArch: core:  0, cta: 4 initialized @(33097,0)
GPGPU-Sim uArch: Shader 4 finished CTA #4 (33168,0), 5 CTAs running
GPGPU-Sim uArch: core:  4, cta: 4 initialized @(33169,0)
GPGPU-Sim uArch: Shader 5 finished CTA #4 (33532,0), 5 CTAs running
GPGPU-Sim uArch: core:  5, cta: 4 initialized @(33533,0)
GPGPU-Sim uArch: Shader 7 finished CTA #4 (33747,0), 5 CTAs running
GPGPU-Sim uArch: core:  7, cta: 4 initialized @(33748,0)
GPGPU-Sim uArch: Shader 3 finished CTA #5 (33835,0), 5 CTAs running
GPGPU-Sim uArch: core:  3, cta: 5 initialized @(33836,0)
GPGPU-Sim PTX: 1200000 instructions simulated : ctaid=(0,6,0) tid=(15,11,0)
GPGPU-Sim uArch: Shader 9 finished CTA #5 (34030,0), 5 CTAs running
GPGPU-Sim uArch: core:  9, cta: 5 initialized @(34031,0)
GPGPU-Sim uArch: Shader 13 finished CTA #4 (34149,0), 5 CTAs running
GPGPU-Sim uArch: core: 13, cta: 4 initialized @(34150,0)
GPGPU-Sim uArch: Shader 12 finished CTA #4 (34194,0), 5 CTAs running
GPGPU-Sim uArch: core: 12, cta: 4 initialized @(34195,0)
GPGPU-Sim uArch: cycles simulated: 34500  inst.: 1185952 (ipc=34.4) sim_rate=62418 (inst/sec) elapsed = 0:0:00:19 / Tue Apr 16 16:45:52 2019
GPGPU-Sim uArch: Shader 2 finished CTA #5 (34541,0), 5 CTAs running
GPGPU-Sim uArch: core:  2, cta: 5 initialized @(34542,0)
GPGPU-Sim uArch: Shader 8 finished CTA #4 (34713,0), 5 CTAs running
GPGPU-Sim uArch: core:  8, cta: 4 initialized @(34714,0)
GPGPU-Sim uArch: Shader 14 finished CTA #5 (34854,0), 5 CTAs running
GPGPU-Sim uArch: core: 14, cta: 5 initialized @(34855,0)
GPGPU-Sim uArch: Shader 10 finished CTA #4 (34972,0), 5 CTAs running
GPGPU-Sim uArch: core: 10, cta: 4 initialized @(34973,0)
GPGPU-Sim uArch: Shader 1 finished CTA #5 (35268,0), 5 CTAs running
GPGPU-Sim uArch: core:  1, cta: 5 initialized @(35269,0)
GPGPU-Sim uArch: Shader 11 finished CTA #5 (35496,0), 5 CTAs running
GPGPU-Sim uArch: core: 11, cta: 5 initialized @(35497,0)
GPGPU-Sim uArch: Shader 0 finished CTA #5 (35701,0), 5 CTAs running
GPGPU-Sim uArch: core:  0, cta: 5 initialized @(35702,0)
GPGPU-Sim uArch: Shader 5 finished CTA #5 (35939,0), 5 CTAs running
GPGPU-Sim uArch: core:  5, cta: 5 initialized @(35940,0)
GPGPU-Sim uArch: Shader 6 finished CTA #5 (36129,0), 5 CTAs running
GPGPU-Sim uArch: core:  6, cta: 5 initialized @(36130,0)
GPGPU-Sim uArch: Shader 12 finished CTA #5 (36420,0), 5 CTAs running
GPGPU-Sim uArch: core: 12, cta: 5 initialized @(36421,0)
GPGPU-Sim PTX: 1300000 instructions simulated : ctaid=(14,10,0) tid=(15,7,0)
GPGPU-Sim uArch: cycles simulated: 36500  inst.: 1263008 (ipc=34.6) sim_rate=63150 (inst/sec) elapsed = 0:0:00:20 / Tue Apr 16 16:45:53 2019
GPGPU-Sim uArch: Shader 4 finished CTA #5 (37100,0), 5 CTAs running
GPGPU-Sim uArch: core:  4, cta: 5 initialized @(37101,0)
GPGPU-Sim uArch: Shader 13 finished CTA #5 (37329,0), 5 CTAs running
GPGPU-Sim uArch: core: 13, cta: 5 initialized @(37330,0)
GPGPU-Sim uArch: Shader 2 finished CTA #0 (37737,0), 5 CTAs running
GPGPU-Sim uArch: core:  2, cta: 0 initialized @(37738,0)
GPGPU-Sim uArch: Shader 14 finished CTA #0 (38006,0), 5 CTAs running
GPGPU-Sim uArch: core: 14, cta: 0 initialized @(38007,0)
GPGPU-Sim uArch: Shader 3 finished CTA #0 (38316,0), 5 CTAs running
GPGPU-Sim uArch: core:  3, cta: 0 initialized @(38317,0)
GPGPU-Sim uArch: Shader 8 finished CTA #5 (38379,0), 5 CTAs running
GPGPU-Sim uArch: core:  8, cta: 5 initialized @(38380,0)
GPGPU-Sim uArch: Shader 10 finished CTA #5 (38417,0), 5 CTAs running
GPGPU-Sim uArch: core: 10, cta: 5 initialized @(38418,0)
GPGPU-Sim uArch: cycles simulated: 38500  inst.: 1322176 (ipc=34.3) sim_rate=62960 (inst/sec) elapsed = 0:0:00:21 / Tue Apr 16 16:45:54 2019
GPGPU-Sim uArch: Shader 7 finished CTA #5 (38994,0), 5 CTAs running
GPGPU-Sim uArch: core:  7, cta: 5 initialized @(38995,0)
GPGPU-Sim uArch: Shader 9 finished CTA #0 (39188,0), 5 CTAs running
GPGPU-Sim uArch: core:  9, cta: 0 initialized @(39189,0)
GPGPU-Sim PTX: 1400000 instructions simulated : ctaid=(7,11,0) tid=(15,9,0)
GPGPU-Sim uArch: Shader 12 finished CTA #0 (40438,0), 5 CTAs running
GPGPU-Sim uArch: core: 12, cta: 0 initialized @(40439,0)
GPGPU-Sim uArch: cycles simulated: 40500  inst.: 1381824 (ipc=34.1) sim_rate=62810 (inst/sec) elapsed = 0:0:00:22 / Tue Apr 16 16:45:55 2019
GPGPU-Sim uArch: Shader 13 finished CTA #0 (40624,0), 5 CTAs running
GPGPU-Sim uArch: core: 13, cta: 0 initialized @(40625,0)
GPGPU-Sim uArch: Shader 6 finished CTA #0 (40676,0), 5 CTAs running
GPGPU-Sim uArch: core:  6, cta: 0 initialized @(40677,0)
GPGPU-Sim uArch: Shader 1 finished CTA #0 (41508,0), 5 CTAs running
GPGPU-Sim uArch: core:  1, cta: 0 initialized @(41509,0)
GPGPU-Sim uArch: Shader 4 finished CTA #0 (41770,0), 5 CTAs running
GPGPU-Sim uArch: core:  4, cta: 0 initialized @(41771,0)
GPGPU-Sim uArch: Shader 8 finished CTA #0 (42224,0), 5 CTAs running
GPGPU-Sim uArch: core:  8, cta: 0 initialized @(42225,0)
GPGPU-Sim uArch: Shader 14 finished CTA #1 (42261,0), 5 CTAs running
GPGPU-Sim uArch: core: 14, cta: 1 initialized @(42262,0)
GPGPU-Sim uArch: Shader 0 finished CTA #0 (42652,0), 5 CTAs running
GPGPU-Sim uArch: core:  0, cta: 0 initialized @(42653,0)
GPGPU-Sim uArch: Shader 11 finished CTA #0 (42894,0), 5 CTAs running
GPGPU-Sim uArch: core: 11, cta: 0 initialized @(42895,0)
GPGPU-Sim uArch: cycles simulated: 43000  inst.: 1454464 (ipc=33.8) sim_rate=63237 (inst/sec) elapsed = 0:0:00:23 / Tue Apr 16 16:45:56 2019
GPGPU-Sim uArch: Shader 9 finished CTA #1 (43053,0), 5 CTAs running
GPGPU-Sim PTX: 1500000 instructions simulated : ctaid=(12,7,0) tid=(15,15,0)
GPGPU-Sim uArch: core:  9, cta: 1 initialized @(43054,0)
GPGPU-Sim uArch: Shader 5 finished CTA #0 (43469,0), 5 CTAs running
GPGPU-Sim uArch: core:  5, cta: 0 initialized @(43470,0)
GPGPU-Sim uArch: Shader 2 finished CTA #1 (43677,0), 5 CTAs running
GPGPU-Sim uArch: core:  2, cta: 1 initialized @(43678,0)
GPGPU-Sim uArch: Shader 11 finished CTA #1 (43797,0), 5 CTAs running
GPGPU-Sim uArch: core: 11, cta: 1 initialized @(43798,0)
GPGPU-Sim uArch: Shader 7 finished CTA #0 (43865,0), 5 CTAs running
GPGPU-Sim uArch: core:  7, cta: 0 initialized @(43866,0)
GPGPU-Sim uArch: Shader 12 finished CTA #1 (44009,0), 5 CTAs running
GPGPU-Sim uArch: core: 12, cta: 1 initialized @(44010,0)
GPGPU-Sim uArch: Shader 13 finished CTA #1 (44304,0), 5 CTAs running
GPGPU-Sim uArch: core: 13, cta: 1 initialized @(44305,0)
GPGPU-Sim uArch: Shader 11 finished CTA #2 (44479,0), 5 CTAs running
GPGPU-Sim uArch: core: 11, cta: 2 initialized @(44480,0)
GPGPU-Sim uArch: Shader 3 finished CTA #1 (44714,0), 5 CTAs running
GPGPU-Sim uArch: core:  3, cta: 1 initialized @(44715,0)
GPGPU-Sim uArch: Shader 2 finished CTA #2 (44807,0), 5 CTAs running
GPGPU-Sim uArch: core:  2, cta: 2 initialized @(44808,0)
GPGPU-Sim uArch: Shader 0 finished CTA #1 (44877,0), 5 CTAs running
GPGPU-Sim uArch: core:  0, cta: 1 initialized @(44878,0)
GPGPU-Sim uArch: cycles simulated: 45000  inst.: 1547680 (ipc=34.4) sim_rate=64486 (inst/sec) elapsed = 0:0:00:24 / Tue Apr 16 16:45:57 2019
GPGPU-Sim PTX: 1600000 instructions simulated : ctaid=(8,12,0) tid=(15,13,0)
GPGPU-Sim uArch: Shader 1 finished CTA #1 (45357,0), 5 CTAs running
GPGPU-Sim uArch: core:  1, cta: 1 initialized @(45358,0)
GPGPU-Sim uArch: Shader 10 finished CTA #0 (45450,0), 5 CTAs running
GPGPU-Sim uArch: core: 10, cta: 0 initialized @(45451,0)
GPGPU-Sim uArch: Shader 14 finished CTA #2 (45585,0), 5 CTAs running
GPGPU-Sim uArch: core: 14, cta: 2 initialized @(45586,0)
GPGPU-Sim uArch: Shader 12 finished CTA #2 (46224,0), 5 CTAs running
GPGPU-Sim uArch: core: 12, cta: 2 initialized @(46225,0)
GPGPU-Sim uArch: Shader 7 finished CTA #1 (46244,0), 5 CTAs running
GPGPU-Sim uArch: core:  7, cta: 1 initialized @(46245,0)
GPGPU-Sim uArch: cycles simulated: 46500  inst.: 1589120 (ipc=34.2) sim_rate=63564 (inst/sec) elapsed = 0:0:00:25 / Tue Apr 16 16:45:58 2019
GPGPU-Sim uArch: Shader 10 finished CTA #1 (46817,0), 5 CTAs running
GPGPU-Sim uArch: core: 10, cta: 1 initialized @(46818,0)
GPGPU-Sim uArch: Shader 9 finished CTA #2 (46925,0), 5 CTAs running
GPGPU-Sim uArch: core:  9, cta: 2 initialized @(46926,0)
GPGPU-Sim uArch: Shader 11 finished CTA #3 (46976,0), 5 CTAs running
GPGPU-Sim uArch: core: 11, cta: 3 initialized @(46977,0)
GPGPU-Sim uArch: Shader 0 finished CTA #2 (47156,0), 5 CTAs running
GPGPU-Sim uArch: core:  0, cta: 2 initialized @(47157,0)
GPGPU-Sim uArch: Shader 2 finished CTA #3 (47239,0), 5 CTAs running
GPGPU-Sim uArch: core:  2, cta: 3 initialized @(47240,0)
GPGPU-Sim uArch: Shader 4 finished CTA #1 (47375,0), 5 CTAs running
GPGPU-Sim uArch: core:  4, cta: 1 initialized @(47376,0)
GPGPU-Sim uArch: Shader 13 finished CTA #2 (47448,0), 5 CTAs running
GPGPU-Sim uArch: core: 13, cta: 2 initialized @(47449,0)
GPGPU-Sim PTX: 1700000 instructions simulated : ctaid=(7,13,0) tid=(15,15,0)
GPGPU-Sim uArch: Shader 10 finished CTA #2 (47544,0), 5 CTAs running
GPGPU-Sim uArch: core: 10, cta: 2 initialized @(47545,0)
GPGPU-Sim uArch: Shader 6 finished CTA #1 (47594,0), 5 CTAs running
GPGPU-Sim uArch: core:  6, cta: 1 initialized @(47595,0)
GPGPU-Sim uArch: Shader 8 finished CTA #1 (47858,0), 5 CTAs running
GPGPU-Sim uArch: core:  8, cta: 1 initialized @(47859,0)
GPGPU-Sim uArch: Shader 3 finished CTA #2 (47969,0), 5 CTAs running
GPGPU-Sim uArch: core:  3, cta: 2 initialized @(47970,0)
GPGPU-Sim uArch: Shader 5 finished CTA #1 (48109,0), 5 CTAs running
GPGPU-Sim uArch: core:  5, cta: 1 initialized @(48110,0)
GPGPU-Sim uArch: Shader 1 finished CTA #2 (48303,0), 5 CTAs running
GPGPU-Sim uArch: core:  1, cta: 2 initialized @(48304,0)
GPGPU-Sim uArch: Shader 4 finished CTA #2 (48361,0), 5 CTAs running
GPGPU-Sim uArch: core:  4, cta: 2 initialized @(48362,0)
GPGPU-Sim uArch: cycles simulated: 48500  inst.: 1700800 (ipc=35.1) sim_rate=65415 (inst/sec) elapsed = 0:0:00:26 / Tue Apr 16 16:45:59 2019
GPGPU-Sim uArch: Shader 6 finished CTA #2 (48530,0), 5 CTAs running
GPGPU-Sim uArch: core:  6, cta: 2 initialized @(48531,0)
GPGPU-Sim uArch: Shader 7 finished CTA #2 (48683,0), 5 CTAs running
GPGPU-Sim uArch: core:  7, cta: 2 initialized @(48684,0)
GPGPU-Sim uArch: Shader 12 finished CTA #3 (48838,0), 5 CTAs running
GPGPU-Sim uArch: core: 12, cta: 3 initialized @(48839,0)
GPGPU-Sim uArch: Shader 8 finished CTA #2 (49013,0), 5 CTAs running
GPGPU-Sim uArch: core:  8, cta: 2 initialized @(49014,0)
GPGPU-Sim uArch: Shader 9 finished CTA #3 (49551,0), 5 CTAs running
GPGPU-Sim uArch: core:  9, cta: 3 initialized @(49552,0)
GPGPU-Sim uArch: Shader 14 finished CTA #3 (49615,0), 5 CTAs running
GPGPU-Sim uArch: core: 14, cta: 3 initialized @(49616,0)
GPGPU-Sim PTX: 1800000 instructions simulated : ctaid=(8,13,0) tid=(15,9,0)
GPGPU-Sim uArch: cycles simulated: 50000  inst.: 1759648 (ipc=35.2) sim_rate=65172 (inst/sec) elapsed = 0:0:00:27 / Tue Apr 16 16:46:00 2019
GPGPU-Sim uArch: Shader 5 finished CTA #2 (50176,0), 5 CTAs running
GPGPU-Sim uArch: core:  5, cta: 2 initialized @(50177,0)
GPGPU-Sim uArch: Shader 11 finished CTA #4 (50771,0), 5 CTAs running
GPGPU-Sim uArch: core: 11, cta: 4 initialized @(50772,0)
GPGPU-Sim uArch: Shader 4 finished CTA #3 (51147,0), 5 CTAs running
GPGPU-Sim uArch: core:  4, cta: 3 initialized @(51148,0)
GPGPU-Sim uArch: Shader 8 finished CTA #3 (51467,0), 5 CTAs running
GPGPU-Sim uArch: core:  8, cta: 3 initialized @(51468,0)
GPGPU-Sim uArch: Shader 3 finished CTA #3 (51892,0), 5 CTAs running
GPGPU-Sim uArch: core:  3, cta: 3 initialized @(51893,0)
GPGPU-Sim uArch: Shader 0 finished CTA #3 (51901,0), 5 CTAs running
GPGPU-Sim uArch: core:  0, cta: 3 initialized @(51902,0)
GPGPU-Sim uArch: Shader 6 finished CTA #3 (51951,0), 5 CTAs running
GPGPU-Sim uArch: core:  6, cta: 3 initialized @(51952,0)
GPGPU-Sim uArch: Shader 9 finished CTA #4 (51961,0), 5 CTAs running
GPGPU-Sim uArch: core:  9, cta: 4 initialized @(51962,0)
GPGPU-Sim uArch: Shader 13 finished CTA #3 (51990,0), 5 CTAs running
GPGPU-Sim uArch: core: 13, cta: 3 initialized @(51991,0)
GPGPU-Sim uArch: cycles simulated: 52000  inst.: 1826112 (ipc=35.1) sim_rate=65218 (inst/sec) elapsed = 0:0:00:28 / Tue Apr 16 16:46:01 2019
GPGPU-Sim uArch: Shader 14 finished CTA #4 (52111,0), 5 CTAs running
GPGPU-Sim uArch: core: 14, cta: 4 initialized @(52112,0)
GPGPU-Sim uArch: Shader 10 finished CTA #3 (52388,0), 5 CTAs running
GPGPU-Sim uArch: core: 10, cta: 3 initialized @(52389,0)
GPGPU-Sim PTX: 1900000 instructions simulated : ctaid=(13,14,0) tid=(15,5,0)
GPGPU-Sim uArch: Shader 7 finished CTA #3 (52577,0), 5 CTAs running
GPGPU-Sim uArch: core:  7, cta: 3 initialized @(52578,0)
GPGPU-Sim uArch: Shader 13 finished CTA #4 (52969,0), 5 CTAs running
GPGPU-Sim uArch: core: 13, cta: 4 initialized @(52970,0)
GPGPU-Sim uArch: Shader 14 finished CTA #5 (53323,0), 5 CTAs running
GPGPU-Sim uArch: core: 14, cta: 5 initialized @(53324,0)
GPGPU-Sim uArch: Shader 12 finished CTA #4 (53421,0), 5 CTAs running
GPGPU-Sim uArch: core: 12, cta: 4 initialized @(53422,0)
GPGPU-Sim uArch: Shader 10 finished CTA #4 (53462,0), 5 CTAs running
GPGPU-Sim uArch: core: 10, cta: 4 initialized @(53463,0)
GPGPU-Sim uArch: Shader 2 finished CTA #4 (53464,0), 5 CTAs running
GPGPU-Sim uArch: core:  2, cta: 4 initialized @(53465,0)
GPGPU-Sim uArch: Shader 1 finished CTA #3 (53713,0), 5 CTAs running
GPGPU-Sim uArch: core:  1, cta: 3 initialized @(53714,0)
GPGPU-Sim uArch: Shader 10 finished CTA #5 (53825,0), 5 CTAs running
GPGPU-Sim uArch: core: 10, cta: 5 initialized @(53826,0)
GPGPU-Sim uArch: cycles simulated: 54000  inst.: 1929280 (ipc=35.7) sim_rate=66526 (inst/sec) elapsed = 0:0:00:29 / Tue Apr 16 16:46:02 2019
GPGPU-Sim uArch: Shader 2 finished CTA #5 (54138,0), 5 CTAs running
GPGPU-Sim uArch: core:  2, cta: 5 initialized @(54139,0)
GPGPU-Sim uArch: Shader 7 finished CTA #4 (54243,0), 5 CTAs running
GPGPU-Sim uArch: core:  7, cta: 4 initialized @(54244,0)
GPGPU-Sim uArch: Shader 4 finished CTA #4 (54251,0), 5 CTAs running
GPGPU-Sim uArch: core:  4, cta: 4 initialized @(54252,0)
GPGPU-Sim PTX: 2000000 instructions simulated : ctaid=(10,15,0) tid=(15,5,0)
GPGPU-Sim uArch: Shader 5 finished CTA #3 (54316,0), 5 CTAs running
GPGPU-Sim uArch: core:  5, cta: 3 initialized @(54317,0)
GPGPU-Sim uArch: Shader 3 finished CTA #4 (54648,0), 5 CTAs running
GPGPU-Sim uArch: core:  3, cta: 4 initialized @(54649,0)
GPGPU-Sim uArch: Shader 9 finished CTA #5 (54730,0), 5 CTAs running
GPGPU-Sim uArch: core:  9, cta: 5 initialized @(54731,0)
GPGPU-Sim uArch: Shader 1 finished CTA #4 (54956,0), 5 CTAs running
GPGPU-Sim uArch: core:  1, cta: 4 initialized @(54957,0)
GPGPU-Sim uArch: Shader 8 finished CTA #4 (54978,0), 5 CTAs running
GPGPU-Sim uArch: core:  8, cta: 4 initialized @(54979,0)
GPGPU-Sim uArch: Shader 0 finished CTA #4 (55385,0), 5 CTAs running
GPGPU-Sim uArch: core:  0, cta: 4 initialized @(55386,0)
GPGPU-Sim uArch: Shader 12 finished CTA #5 (55710,0), 5 CTAs running
GPGPU-Sim uArch: core: 12, cta: 5 initialized @(55711,0)
GPGPU-Sim uArch: Shader 6 finished CTA #4 (55916,0), 5 CTAs running
GPGPU-Sim uArch: core:  6, cta: 4 initialized @(55917,0)
GPGPU-Sim uArch: Shader 2 finished CTA #0 (55943,0), 5 CTAs running
GPGPU-Sim uArch: core:  2, cta: 0 initialized @(55944,0)
GPGPU-Sim uArch: cycles simulated: 56000  inst.: 2012096 (ipc=35.9) sim_rate=67069 (inst/sec) elapsed = 0:0:00:30 / Tue Apr 16 16:46:03 2019
GPGPU-Sim uArch: Shader 11 finished CTA #5 (56135,0), 5 CTAs running
GPGPU-Sim uArch: core: 11, cta: 5 initialized @(56136,0)
GPGPU-Sim uArch: Shader 5 finished CTA #4 (56209,0), 5 CTAs running
GPGPU-Sim uArch: core:  5, cta: 4 initialized @(56210,0)
GPGPU-Sim PTX: 2100000 instructions simulated : ctaid=(11,10,0) tid=(15,15,0)
GPGPU-Sim uArch: Shader 8 finished CTA #5 (57055,0), 5 CTAs running
GPGPU-Sim uArch: core:  8, cta: 5 initialized @(57056,0)
GPGPU-Sim uArch: cycles simulated: 57500  inst.: 2050144 (ipc=35.7) sim_rate=66133 (inst/sec) elapsed = 0:0:00:31 / Tue Apr 16 16:46:04 2019
GPGPU-Sim uArch: Shader 4 finished CTA #5 (57784,0), 5 CTAs running
GPGPU-Sim uArch: core:  4, cta: 5 initialized @(57785,0)
GPGPU-Sim uArch: Shader 13 finished CTA #5 (57880,0), 5 CTAs running
GPGPU-Sim uArch: core: 13, cta: 5 initialized @(57881,0)
GPGPU-Sim uArch: Shader 13 finished CTA #0 (58069,0), 5 CTAs running
GPGPU-Sim uArch: core: 13, cta: 0 initialized @(58070,0)
GPGPU-Sim uArch: Shader 1 finished CTA #5 (58071,0), 5 CTAs running
GPGPU-Sim uArch: core:  1, cta: 5 initialized @(58072,0)
GPGPU-Sim uArch: Shader 5 finished CTA #5 (58316,0), 5 CTAs running
GPGPU-Sim uArch: core:  5, cta: 5 initialized @(58317,0)
GPGPU-Sim uArch: Shader 10 finished CTA #0 (58531,0), 5 CTAs running
GPGPU-Sim uArch: core: 10, cta: 0 initialized @(58532,0)
GPGPU-Sim uArch: Shader 11 finished CTA #0 (59123,0), 5 CTAs running
GPGPU-Sim uArch: core: 11, cta: 0 initialized @(59124,0)
GPGPU-Sim uArch: Shader 12 finished CTA #0 (59277,0), 5 CTAs running
GPGPU-Sim uArch: core: 12, cta: 0 initialized @(59278,0)
GPGPU-Sim uArch: Shader 0 finished CTA #5 (59320,0), 5 CTAs running
GPGPU-Sim uArch: core:  0, cta: 5 initialized @(59321,0)
GPGPU-Sim uArch: Shader 14 finished CTA #0 (59419,0), 5 CTAs running
GPGPU-Sim uArch: core: 14, cta: 0 initialized @(59420,0)
GPGPU-Sim PTX: 2200000 instructions simulated : ctaid=(0,17,0) tid=(15,5,0)
GPGPU-Sim uArch: cycles simulated: 59500  inst.: 2138464 (ipc=35.9) sim_rate=66827 (inst/sec) elapsed = 0:0:00:32 / Tue Apr 16 16:46:05 2019
GPGPU-Sim uArch: Shader 3 finished CTA #5 (59944,0), 5 CTAs running
GPGPU-Sim uArch: core:  3, cta: 5 initialized @(59945,0)
GPGPU-Sim uArch: Shader 7 finished CTA #5 (60201,0), 5 CTAs running
GPGPU-Sim uArch: core:  7, cta: 5 initialized @(60202,0)
GPGPU-Sim uArch: Shader 0 finished CTA #0 (60279,0), 5 CTAs running
GPGPU-Sim uArch: core:  0, cta: 0 initialized @(60280,0)
GPGPU-Sim uArch: Shader 9 finished CTA #0 (60492,0), 5 CTAs running
GPGPU-Sim uArch: core:  9, cta: 0 initialized @(60493,0)
GPGPU-Sim uArch: Shader 6 finished CTA #5 (60858,0), 5 CTAs running
GPGPU-Sim uArch: core:  6, cta: 5 initialized @(60859,0)
GPGPU-Sim uArch: Shader 13 finished CTA #1 (61076,0), 5 CTAs running
GPGPU-Sim uArch: core: 13, cta: 1 initialized @(61077,0)
GPGPU-Sim uArch: Shader 11 finished CTA #1 (61219,0), 5 CTAs running
GPGPU-Sim uArch: core: 11, cta: 1 initialized @(61220,0)
GPGPU-Sim uArch: cycles simulated: 61500  inst.: 2226816 (ipc=36.2) sim_rate=67479 (inst/sec) elapsed = 0:0:00:33 / Tue Apr 16 16:46:06 2019
GPGPU-Sim uArch: Shader 2 finished CTA #1 (61518,0), 5 CTAs running
GPGPU-Sim uArch: core:  2, cta: 1 initialized @(61519,0)
GPGPU-Sim uArch: Shader 8 finished CTA #0 (61548,0), 5 CTAs running
GPGPU-Sim uArch: core:  8, cta: 0 initialized @(61549,0)
GPGPU-Sim PTX: 2300000 instructions simulated : ctaid=(9,17,0) tid=(15,3,0)
GPGPU-Sim uArch: Shader 4 finished CTA #0 (61669,0), 5 CTAs running
GPGPU-Sim uArch: core:  4, cta: 0 initialized @(61670,0)
GPGPU-Sim uArch: Shader 14 finished CTA #1 (61750,0), 5 CTAs running
GPGPU-Sim uArch: core: 14, cta: 1 initialized @(61751,0)
GPGPU-Sim uArch: Shader 7 finished CTA #0 (61811,0), 5 CTAs running
GPGPU-Sim uArch: core:  7, cta: 0 initialized @(61812,0)
GPGPU-Sim uArch: Shader 1 finished CTA #0 (61860,0), 5 CTAs running
GPGPU-Sim uArch: core:  1, cta: 0 initialized @(61861,0)
GPGPU-Sim uArch: Shader 3 finished CTA #0 (62429,0), 5 CTAs running
GPGPU-Sim uArch: core:  3, cta: 0 initialized @(62430,0)
GPGPU-Sim uArch: Shader 5 finished CTA #0 (62769,0), 5 CTAs running
GPGPU-Sim uArch: core:  5, cta: 0 initialized @(62770,0)
GPGPU-Sim uArch: Shader 6 finished CTA #0 (62786,0), 5 CTAs running
GPGPU-Sim uArch: core:  6, cta: 0 initialized @(62787,0)
GPGPU-Sim uArch: cycles simulated: 63000  inst.: 2295712 (ipc=36.4) sim_rate=67520 (inst/sec) elapsed = 0:0:00:34 / Tue Apr 16 16:46:07 2019
GPGPU-Sim uArch: Shader 12 finished CTA #1 (63306,0), 5 CTAs running
GPGPU-Sim uArch: core: 12, cta: 1 initialized @(63307,0)
GPGPU-Sim uArch: Shader 9 finished CTA #1 (63576,0), 5 CTAs running
GPGPU-Sim uArch: core:  9, cta: 1 initialized @(63577,0)
GPGPU-Sim uArch: Shader 8 finished CTA #1 (63675,0), 5 CTAs running
GPGPU-Sim uArch: core:  8, cta: 1 initialized @(63676,0)
GPGPU-Sim uArch: Shader 0 finished CTA #1 (63711,0), 5 CTAs running
GPGPU-Sim uArch: core:  0, cta: 1 initialized @(63712,0)
GPGPU-Sim uArch: Shader 2 finished CTA #2 (63725,0), 5 CTAs running
GPGPU-Sim uArch: core:  2, cta: 2 initialized @(63726,0)
GPGPU-Sim PTX: 2400000 instructions simulated : ctaid=(5,18,0) tid=(15,3,0)
GPGPU-Sim uArch: Shader 6 finished CTA #1 (63885,0), 5 CTAs running
GPGPU-Sim uArch: core:  6, cta: 1 initialized @(63886,0)
GPGPU-Sim uArch: Shader 4 finished CTA #1 (63922,0), 5 CTAs running
GPGPU-Sim uArch: core:  4, cta: 1 initialized @(63923,0)
GPGPU-Sim uArch: Shader 1 finished CTA #1 (64014,0), 5 CTAs running
GPGPU-Sim uArch: core:  1, cta: 1 initialized @(64015,0)
GPGPU-Sim uArch: Shader 11 finished CTA #2 (64504,0), 5 CTAs running
GPGPU-Sim uArch: core: 11, cta: 2 initialized @(64505,0)
GPGPU-Sim uArch: Shader 10 finished CTA #1 (64827,0), 5 CTAs running
GPGPU-Sim uArch: core: 10, cta: 1 initialized @(64828,0)
GPGPU-Sim uArch: Shader 3 finished CTA #1 (64874,0), 5 CTAs running
GPGPU-Sim uArch: core:  3, cta: 1 initialized @(64875,0)
GPGPU-Sim uArch: cycles simulated: 65000  inst.: 2372896 (ipc=36.5) sim_rate=67797 (inst/sec) elapsed = 0:0:00:35 / Tue Apr 16 16:46:08 2019
GPGPU-Sim uArch: Shader 14 finished CTA #2 (65027,0), 5 CTAs running
GPGPU-Sim uArch: core: 14, cta: 2 initialized @(65028,0)
GPGPU-Sim uArch: Shader 12 finished CTA #2 (65082,0), 5 CTAs running
GPGPU-Sim uArch: core: 12, cta: 2 initialized @(65083,0)
GPGPU-Sim uArch: Shader 7 finished CTA #1 (65140,0), 5 CTAs running
GPGPU-Sim uArch: core:  7, cta: 1 initialized @(65141,0)
GPGPU-Sim uArch: Shader 5 finished CTA #1 (65230,0), 5 CTAs running
GPGPU-Sim uArch: core:  5, cta: 1 initialized @(65231,0)
GPGPU-Sim uArch: Shader 13 finished CTA #2 (65331,0), 5 CTAs running
GPGPU-Sim uArch: core: 13, cta: 2 initialized @(65332,0)
GPGPU-Sim uArch: Shader 8 finished CTA #2 (66140,0), 5 CTAs running
GPGPU-Sim uArch: core:  8, cta: 2 initialized @(66141,0)
GPGPU-Sim uArch: Shader 4 finished CTA #2 (66250,0), 5 CTAs running
GPGPU-Sim uArch: core:  4, cta: 2 initialized @(66251,0)
GPGPU-Sim uArch: Shader 9 finished CTA #2 (66275,0), 5 CTAs running
GPGPU-Sim uArch: core:  9, cta: 2 initialized @(66276,0)
GPGPU-Sim PTX: 2500000 instructions simulated : ctaid=(3,19,0) tid=(15,5,0)
GPGPU-Sim uArch: cycles simulated: 66500  inst.: 2435488 (ipc=36.6) sim_rate=67652 (inst/sec) elapsed = 0:0:00:36 / Tue Apr 16 16:46:09 2019
GPGPU-Sim uArch: Shader 2 finished CTA #3 (66524,0), 5 CTAs running
GPGPU-Sim uArch: core:  2, cta: 3 initialized @(66525,0)
GPGPU-Sim uArch: Shader 5 finished CTA #2 (66918,0), 5 CTAs running
GPGPU-Sim uArch: core:  5, cta: 2 initialized @(66919,0)
GPGPU-Sim uArch: Shader 6 finished CTA #2 (67204,0), 5 CTAs running
GPGPU-Sim uArch: core:  6, cta: 2 initialized @(67205,0)
GPGPU-Sim uArch: Shader 0 finished CTA #2 (67886,0), 5 CTAs running
GPGPU-Sim uArch: core:  0, cta: 2 initialized @(67887,0)
GPGPU-Sim uArch: Shader 10 finished CTA #2 (67973,0), 5 CTAs running
GPGPU-Sim uArch: core: 10, cta: 2 initialized @(67974,0)
GPGPU-Sim uArch: Shader 13 finished CTA #3 (68080,0), 5 CTAs running
GPGPU-Sim uArch: core: 13, cta: 3 initialized @(68081,0)
GPGPU-Sim uArch: Shader 1 finished CTA #2 (68281,0), 5 CTAs running
GPGPU-Sim uArch: core:  1, cta: 2 initialized @(68282,0)
GPGPU-Sim uArch: cycles simulated: 68500  inst.: 2495904 (ipc=36.4) sim_rate=67456 (inst/sec) elapsed = 0:0:00:37 / Tue Apr 16 16:46:10 2019
GPGPU-Sim uArch: Shader 7 finished CTA #2 (69133,0), 5 CTAs running
GPGPU-Sim uArch: core:  7, cta: 2 initialized @(69134,0)
GPGPU-Sim uArch: Shader 11 finished CTA #3 (69174,0), 5 CTAs running
GPGPU-Sim uArch: core: 11, cta: 3 initialized @(69175,0)
GPGPU-Sim PTX: 2600000 instructions simulated : ctaid=(5,19,0) tid=(15,5,0)
GPGPU-Sim uArch: Shader 4 finished CTA #3 (69484,0), 5 CTAs running
GPGPU-Sim uArch: core:  4, cta: 3 initialized @(69485,0)
GPGPU-Sim uArch: Shader 14 finished CTA #3 (69651,0), 5 CTAs running
GPGPU-Sim uArch: core: 14, cta: 3 initialized @(69652,0)
GPGPU-Sim uArch: Shader 1 finished CTA #3 (70095,0), 5 CTAs running
GPGPU-Sim uArch: core:  1, cta: 3 initialized @(70096,0)
GPGPU-Sim uArch: Shader 11 finished CTA #4 (70182,0), 5 CTAs running
GPGPU-Sim uArch: core: 11, cta: 4 initialized @(70183,0)
GPGPU-Sim uArch: cycles simulated: 70500  inst.: 2564064 (ipc=36.4) sim_rate=67475 (inst/sec) elapsed = 0:0:00:38 / Tue Apr 16 16:46:11 2019
GPGPU-Sim uArch: Shader 9 finished CTA #3 (70607,0), 5 CTAs running
GPGPU-Sim uArch: core:  9, cta: 3 initialized @(70608,0)
GPGPU-Sim uArch: Shader 13 finished CTA #4 (70623,0), 5 CTAs running
GPGPU-Sim uArch: core: 13, cta: 4 initialized @(70624,0)
GPGPU-Sim uArch: Shader 3 finished CTA #2 (70708,0), 5 CTAs running
GPGPU-Sim uArch: core:  3, cta: 2 initialized @(70709,0)
GPGPU-Sim uArch: Shader 12 finished CTA #3 (70771,0), 5 CTAs running
GPGPU-Sim uArch: core: 12, cta: 3 initialized @(70772,0)
GPGPU-Sim uArch: Shader 2 finished CTA #4 (71419,0), 5 CTAs running
GPGPU-Sim uArch: core:  2, cta: 4 initialized @(71420,0)
GPGPU-Sim uArch: Shader 5 finished CTA #3 (71619,0), 5 CTAs running
GPGPU-Sim uArch: core:  5, cta: 3 initialized @(71620,0)
GPGPU-Sim uArch: Shader 3 finished CTA #3 (71692,0), 5 CTAs running
GPGPU-Sim uArch: core:  3, cta: 3 initialized @(71693,0)
GPGPU-Sim uArch: cycles simulated: 72000  inst.: 2614336 (ipc=36.3) sim_rate=67034 (inst/sec) elapsed = 0:0:00:39 / Tue Apr 16 16:46:12 2019
GPGPU-Sim uArch: Shader 14 finished CTA #4 (72132,0), 5 CTAs running
GPGPU-Sim uArch: core: 14, cta: 4 initialized @(72133,0)
GPGPU-Sim PTX: 2700000 instructions simulated : ctaid=(1,20,0) tid=(15,9,0)
GPGPU-Sim uArch: Shader 0 finished CTA #3 (72510,0), 5 CTAs running
GPGPU-Sim uArch: core:  0, cta: 3 initialized @(72511,0)
GPGPU-Sim uArch: Shader 11 finished CTA #5 (73124,0), 5 CTAs running
GPGPU-Sim uArch: core: 11, cta: 5 initialized @(73125,0)
GPGPU-Sim uArch: Shader 3 finished CTA #4 (73520,0), 5 CTAs running
GPGPU-Sim uArch: core:  3, cta: 4 initialized @(73521,0)
GPGPU-Sim uArch: Shader 8 finished CTA #3 (73529,0), 5 CTAs running
GPGPU-Sim uArch: core:  8, cta: 3 initialized @(73530,0)
GPGPU-Sim uArch: Shader 10 finished CTA #3 (73702,0), 5 CTAs running
GPGPU-Sim uArch: core: 10, cta: 3 initialized @(73703,0)
GPGPU-Sim uArch: cycles simulated: 74000  inst.: 2695968 (ipc=36.4) sim_rate=67399 (inst/sec) elapsed = 0:0:00:40 / Tue Apr 16 16:46:13 2019
GPGPU-Sim uArch: Shader 2 finished CTA #5 (74102,0), 5 CTAs running
GPGPU-Sim uArch: core:  2, cta: 5 initialized @(74103,0)
GPGPU-Sim uArch: Shader 6 finished CTA #3 (74228,0), 5 CTAs running
GPGPU-Sim uArch: core:  6, cta: 3 initialized @(74229,0)
GPGPU-Sim PTX: 2800000 instructions simulated : ctaid=(8,17,0) tid=(15,15,0)
GPGPU-Sim uArch: Shader 10 finished CTA #4 (74393,0), 5 CTAs running
GPGPU-Sim uArch: core: 10, cta: 4 initialized @(74394,0)
GPGPU-Sim uArch: Shader 5 finished CTA #4 (74428,0), 5 CTAs running
GPGPU-Sim uArch: core:  5, cta: 4 initialized @(74429,0)
GPGPU-Sim uArch: Shader 14 finished CTA #5 (74501,0), 5 CTAs running
GPGPU-Sim uArch: core: 14, cta: 5 initialized @(74502,0)
GPGPU-Sim uArch: Shader 7 finished CTA #3 (74583,0), 5 CTAs running
GPGPU-Sim uArch: core:  7, cta: 3 initialized @(74584,0)
GPGPU-Sim uArch: Shader 8 finished CTA #4 (74824,0), 5 CTAs running
GPGPU-Sim uArch: core:  8, cta: 4 initialized @(74825,0)
GPGPU-Sim uArch: Shader 12 finished CTA #4 (74934,0), 5 CTAs running
GPGPU-Sim uArch: core: 12, cta: 4 initialized @(74935,0)
GPGPU-Sim uArch: Shader 9 finished CTA #4 (75028,0), 5 CTAs running
GPGPU-Sim uArch: core:  9, cta: 4 initialized @(75029,0)
GPGPU-Sim uArch: Shader 13 finished CTA #5 (75053,0), 5 CTAs running
GPGPU-Sim uArch: core: 13, cta: 5 initialized @(75054,0)
GPGPU-Sim uArch: Shader 1 finished CTA #4 (75373,0), 5 CTAs running
GPGPU-Sim uArch: core:  1, cta: 4 initialized @(75374,0)
GPGPU-Sim uArch: Shader 12 finished CTA #5 (75377,0), 5 CTAs running
GPGPU-Sim uArch: core: 12, cta: 5 initialized @(75378,0)
GPGPU-Sim uArch: cycles simulated: 75500  inst.: 2795712 (ipc=37.0) sim_rate=68188 (inst/sec) elapsed = 0:0:00:41 / Tue Apr 16 16:46:14 2019
GPGPU-Sim uArch: Shader 4 finished CTA #4 (75503,0), 5 CTAs running
GPGPU-Sim uArch: core:  4, cta: 4 initialized @(75504,0)
GPGPU-Sim uArch: Shader 7 finished CTA #4 (75690,0), 5 CTAs running
GPGPU-Sim uArch: core:  7, cta: 4 initialized @(75691,0)
GPGPU-Sim uArch: Shader 10 finished CTA #5 (75877,0), 5 CTAs running
GPGPU-Sim uArch: core: 10, cta: 5 initialized @(75878,0)
GPGPU-Sim PTX: 2900000 instructions simulated : ctaid=(5,17,0) tid=(15,11,0)
GPGPU-Sim uArch: Shader 0 finished CTA #4 (75939,0), 5 CTAs running
GPGPU-Sim uArch: core:  0, cta: 4 initialized @(75940,0)
GPGPU-Sim uArch: Shader 9 finished CTA #5 (76496,0), 5 CTAs running
GPGPU-Sim uArch: core:  9, cta: 5 initialized @(76497,0)
GPGPU-Sim uArch: Shader 3 finished CTA #5 (76953,0), 5 CTAs running
GPGPU-Sim uArch: core:  3, cta: 5 initialized @(76954,0)
GPGPU-Sim uArch: cycles simulated: 77000  inst.: 2840256 (ipc=36.9) sim_rate=67625 (inst/sec) elapsed = 0:0:00:42 / Tue Apr 16 16:46:15 2019
GPGPU-Sim uArch: Shader 1 finished CTA #5 (77129,0), 5 CTAs running
GPGPU-Sim uArch: core:  1, cta: 5 initialized @(77130,0)
GPGPU-Sim uArch: Shader 6 finished CTA #4 (77241,0), 5 CTAs running
GPGPU-Sim uArch: core:  6, cta: 4 initialized @(77242,0)
GPGPU-Sim uArch: Shader 13 finished CTA #0 (77490,0), 5 CTAs running
GPGPU-Sim uArch: core: 13, cta: 0 initialized @(77491,0)
GPGPU-Sim uArch: Shader 14 finished CTA #0 (77533,0), 5 CTAs running
GPGPU-Sim uArch: core: 14, cta: 0 initialized @(77534,0)
GPGPU-Sim uArch: Shader 2 finished CTA #0 (77562,0), 5 CTAs running
GPGPU-Sim uArch: core:  2, cta: 0 initialized @(77563,0)
GPGPU-Sim uArch: Shader 11 finished CTA #0 (77839,0), 5 CTAs running
GPGPU-Sim uArch: core: 11, cta: 0 initialized @(77840,0)
GPGPU-Sim uArch: Shader 5 finished CTA #5 (77987,0), 5 CTAs running
GPGPU-Sim uArch: core:  5, cta: 5 initialized @(77988,0)
GPGPU-Sim uArch: Shader 7 finished CTA #5 (78535,0), 5 CTAs running
GPGPU-Sim uArch: core:  7, cta: 5 initialized @(78536,0)
GPGPU-Sim uArch: Shader 8 finished CTA #5 (78597,0), 5 CTAs running
GPGPU-Sim uArch: core:  8, cta: 5 initialized @(78598,0)
GPGPU-Sim uArch: Shader 4 finished CTA #5 (78620,0), 5 CTAs running
GPGPU-Sim uArch: core:  4, cta: 5 initialized @(78621,0)
GPGPU-Sim uArch: Shader 0 finished CTA #5 (78667,0), 5 CTAs running
GPGPU-Sim uArch: core:  0, cta: 5 initialized @(78668,0)
GPGPU-Sim PTX: 3000000 instructions simulated : ctaid=(13,21,0) tid=(15,5,0)
GPGPU-Sim uArch: cycles simulated: 79000  inst.: 2923808 (ipc=37.0) sim_rate=67995 (inst/sec) elapsed = 0:0:00:43 / Tue Apr 16 16:46:16 2019
GPGPU-Sim uArch: Shader 12 finished CTA #0 (79090,0), 5 CTAs running
GPGPU-Sim uArch: core: 12, cta: 0 initialized @(79091,0)
GPGPU-Sim uArch: Shader 9 finished CTA #0 (79638,0), 5 CTAs running
GPGPU-Sim uArch: core:  9, cta: 0 initialized @(79639,0)
GPGPU-Sim uArch: Shader 14 finished CTA #1 (80065,0), 5 CTAs running
GPGPU-Sim uArch: core: 14, cta: 1 initialized @(80066,0)
GPGPU-Sim uArch: Shader 1 finished CTA #0 (80114,0), 5 CTAs running
GPGPU-Sim uArch: core:  1, cta: 0 initialized @(80115,0)
GPGPU-Sim uArch: Shader 3 finished CTA #0 (80364,0), 5 CTAs running
GPGPU-Sim uArch: core:  3, cta: 0 initialized @(80365,0)
GPGPU-Sim uArch: cycles simulated: 80500  inst.: 2980448 (ipc=37.0) sim_rate=67737 (inst/sec) elapsed = 0:0:00:44 / Tue Apr 16 16:46:17 2019
GPGPU-Sim uArch: Shader 11 finished CTA #1 (80536,0), 5 CTAs running
GPGPU-Sim uArch: core: 11, cta: 1 initialized @(80537,0)
GPGPU-Sim uArch: Shader 10 finished CTA #0 (80690,0), 5 CTAs running
GPGPU-Sim uArch: core: 10, cta: 0 initialized @(80691,0)
GPGPU-Sim uArch: Shader 5 finished CTA #0 (80756,0), 5 CTAs running
GPGPU-Sim uArch: core:  5, cta: 0 initialized @(80757,0)
GPGPU-Sim PTX: 3100000 instructions simulated : ctaid=(1,23,0) tid=(15,9,0)
GPGPU-Sim uArch: Shader 13 finished CTA #1 (81050,0), 5 CTAs running
GPGPU-Sim uArch: core: 13, cta: 1 initialized @(81051,0)
GPGPU-Sim uArch: Shader 2 finished CTA #1 (81147,0), 5 CTAs running
GPGPU-Sim uArch: core:  2, cta: 1 initialized @(81148,0)
GPGPU-Sim uArch: Shader 6 finished CTA #5 (81437,0), 5 CTAs running
GPGPU-Sim uArch: core:  6, cta: 5 initialized @(81438,0)
GPGPU-Sim uArch: Shader 4 finished CTA #0 (81536,0), 5 CTAs running
GPGPU-Sim uArch: core:  4, cta: 0 initialized @(81537,0)
GPGPU-Sim uArch: Shader 7 finished CTA #0 (81760,0), 5 CTAs running
GPGPU-Sim uArch: core:  7, cta: 0 initialized @(81761,0)
GPGPU-Sim uArch: Shader 8 finished CTA #0 (81819,0), 5 CTAs running
GPGPU-Sim uArch: core:  8, cta: 0 initialized @(81820,0)
GPGPU-Sim uArch: Shader 12 finished CTA #1 (81821,0), 5 CTAs running
GPGPU-Sim uArch: core: 12, cta: 1 initialized @(81822,0)
GPGPU-Sim uArch: cycles simulated: 82000  inst.: 3049664 (ipc=37.2) sim_rate=67770 (inst/sec) elapsed = 0:0:00:45 / Tue Apr 16 16:46:18 2019
GPGPU-Sim uArch: Shader 3 finished CTA #1 (82197,0), 5 CTAs running
GPGPU-Sim uArch: core:  3, cta: 1 initialized @(82198,0)
GPGPU-Sim uArch: Shader 10 finished CTA #1 (82563,0), 5 CTAs running
GPGPU-Sim uArch: core: 10, cta: 1 initialized @(82564,0)
GPGPU-Sim uArch: Shader 0 finished CTA #0 (82647,0), 5 CTAs running
GPGPU-Sim uArch: core:  0, cta: 0 initialized @(82648,0)
GPGPU-Sim uArch: Shader 9 finished CTA #1 (82782,0), 5 CTAs running
GPGPU-Sim uArch: core:  9, cta: 1 initialized @(82783,0)
GPGPU-Sim uArch: Shader 4 finished CTA #1 (83124,0), 5 CTAs running
GPGPU-Sim uArch: core:  4, cta: 1 initialized @(83125,0)
GPGPU-Sim uArch: Shader 8 finished CTA #1 (83628,0), 5 CTAs running
GPGPU-Sim uArch: core:  8, cta: 1 initialized @(83629,0)
GPGPU-Sim uArch: Shader 7 finished CTA #1 (83716,0), 5 CTAs running
GPGPU-Sim uArch: core:  7, cta: 1 initialized @(83717,0)
GPGPU-Sim PTX: 3200000 instructions simulated : ctaid=(5,23,0) tid=(15,5,0)
GPGPU-Sim uArch: cycles simulated: 84000  inst.: 3114656 (ipc=37.1) sim_rate=67709 (inst/sec) elapsed = 0:0:00:46 / Tue Apr 16 16:46:19 2019
GPGPU-Sim uArch: Shader 14 finished CTA #2 (84022,0), 5 CTAs running
GPGPU-Sim uArch: core: 14, cta: 2 initialized @(84023,0)
GPGPU-Sim uArch: Shader 6 finished CTA #0 (84638,0), 5 CTAs running
GPGPU-Sim uArch: core:  6, cta: 0 initialized @(84639,0)
GPGPU-Sim uArch: Shader 11 finished CTA #2 (84688,0), 5 CTAs running
GPGPU-Sim uArch: core: 11, cta: 2 initialized @(84689,0)
GPGPU-Sim uArch: Shader 1 finished CTA #1 (84916,0), 5 CTAs running
GPGPU-Sim uArch: core:  1, cta: 1 initialized @(84917,0)
GPGPU-Sim uArch: Shader 12 finished CTA #2 (85187,0), 5 CTAs running
GPGPU-Sim uArch: core: 12, cta: 2 initialized @(85188,0)
GPGPU-Sim uArch: cycles simulated: 85500  inst.: 3163232 (ipc=37.0) sim_rate=67302 (inst/sec) elapsed = 0:0:00:47 / Tue Apr 16 16:46:20 2019
GPGPU-Sim uArch: Shader 5 finished CTA #1 (86068,0), 5 CTAs running
GPGPU-Sim uArch: core:  5, cta: 1 initialized @(86069,0)
GPGPU-Sim uArch: Shader 2 finished CTA #2 (86254,0), 5 CTAs running
GPGPU-Sim uArch: core:  2, cta: 2 initialized @(86255,0)
GPGPU-Sim uArch: Shader 14 finished CTA #3 (86622,0), 5 CTAs running
GPGPU-Sim uArch: core: 14, cta: 3 initialized @(86623,0)
GPGPU-Sim uArch: Shader 10 finished CTA #2 (86756,0), 5 CTAs running
GPGPU-Sim uArch: core: 10, cta: 2 initialized @(86757,0)
GPGPU-Sim PTX: 3300000 instructions simulated : ctaid=(4,20,0) tid=(15,7,0)
GPGPU-Sim uArch: Shader 8 finished CTA #2 (87313,0), 5 CTAs running
GPGPU-Sim uArch: core:  8, cta: 2 initialized @(87314,0)
GPGPU-Sim uArch: Shader 3 finished CTA #2 (87470,0), 5 CTAs running
GPGPU-Sim uArch: core:  3, cta: 2 initialized @(87471,0)
GPGPU-Sim uArch: cycles simulated: 87500  inst.: 3214944 (ipc=36.7) sim_rate=66978 (inst/sec) elapsed = 0:0:00:48 / Tue Apr 16 16:46:21 2019
GPGPU-Sim uArch: Shader 1 finished CTA #2 (87507,0), 5 CTAs running
GPGPU-Sim uArch: core:  1, cta: 2 initialized @(87508,0)
GPGPU-Sim uArch: Shader 4 finished CTA #2 (87710,0), 5 CTAs running
GPGPU-Sim uArch: core:  4, cta: 2 initialized @(87711,0)
GPGPU-Sim uArch: Shader 9 finished CTA #2 (88007,0), 5 CTAs running
GPGPU-Sim uArch: core:  9, cta: 2 initialized @(88008,0)
GPGPU-Sim uArch: Shader 13 finished CTA #2 (88087,0), 5 CTAs running
GPGPU-Sim uArch: core: 13, cta: 2 initialized @(88088,0)
GPGPU-Sim uArch: Shader 6 finished CTA #1 (88179,0), 5 CTAs running
GPGPU-Sim uArch: core:  6, cta: 1 initialized @(88180,0)
GPGPU-Sim uArch: Shader 0 finished CTA #1 (88508,0), 5 CTAs running
GPGPU-Sim uArch: core:  0, cta: 1 initialized @(88509,0)
GPGPU-Sim uArch: Shader 7 finished CTA #2 (88741,0), 5 CTAs running
GPGPU-Sim uArch: core:  7, cta: 2 initialized @(88742,0)
GPGPU-Sim uArch: Shader 11 finished CTA #3 (88917,0), 5 CTAs running
GPGPU-Sim uArch: core: 11, cta: 3 initialized @(88918,0)
GPGPU-Sim uArch: cycles simulated: 89000  inst.: 3290976 (ipc=37.0) sim_rate=67162 (inst/sec) elapsed = 0:0:00:49 / Tue Apr 16 16:46:22 2019
GPGPU-Sim PTX: 3400000 instructions simulated : ctaid=(10,24,0) tid=(15,5,0)
GPGPU-Sim uArch: Shader 14 finished CTA #4 (89215,0), 5 CTAs running
GPGPU-Sim uArch: core: 14, cta: 4 initialized @(89216,0)
GPGPU-Sim uArch: Shader 13 finished CTA #3 (89223,0), 5 CTAs running
GPGPU-Sim uArch: core: 13, cta: 3 initialized @(89224,0)
GPGPU-Sim uArch: Shader 1 finished CTA #3 (89313,0), 5 CTAs running
GPGPU-Sim uArch: core:  1, cta: 3 initialized @(89314,0)
GPGPU-Sim uArch: Shader 5 finished CTA #2 (89529,0), 5 CTAs running
GPGPU-Sim uArch: core:  5, cta: 2 initialized @(89530,0)
GPGPU-Sim uArch: Shader 0 finished CTA #2 (89600,0), 5 CTAs running
GPGPU-Sim uArch: core:  0, cta: 2 initialized @(89601,0)
GPGPU-Sim uArch: Shader 9 finished CTA #3 (89904,0), 5 CTAs running
GPGPU-Sim uArch: core:  9, cta: 3 initialized @(89905,0)
GPGPU-Sim uArch: Shader 4 finished CTA #3 (89984,0), 5 CTAs running
GPGPU-Sim uArch: core:  4, cta: 3 initialized @(89985,0)
GPGPU-Sim uArch: Shader 2 finished CTA #3 (90022,0), 5 CTAs running
GPGPU-Sim uArch: core:  2, cta: 3 initialized @(90023,0)
GPGPU-Sim uArch: Shader 6 finished CTA #2 (90488,0), 5 CTAs running
GPGPU-Sim uArch: core:  6, cta: 2 initialized @(90489,0)
GPGPU-Sim uArch: cycles simulated: 90500  inst.: 3364064 (ipc=37.2) sim_rate=67281 (inst/sec) elapsed = 0:0:00:50 / Tue Apr 16 16:46:23 2019
GPGPU-Sim uArch: Shader 10 finished CTA #3 (90681,0), 5 CTAs running
GPGPU-Sim uArch: core: 10, cta: 3 initialized @(90682,0)
GPGPU-Sim uArch: Shader 11 finished CTA #4 (91043,0), 5 CTAs running
GPGPU-Sim uArch: core: 11, cta: 4 initialized @(91044,0)
GPGPU-Sim uArch: Shader 8 finished CTA #3 (91683,0), 5 CTAs running
GPGPU-Sim uArch: core:  8, cta: 3 initialized @(91684,0)
GPGPU-Sim PTX: 3500000 instructions simulated : ctaid=(15,25,0) tid=(15,1,0)
GPGPU-Sim uArch: Shader 0 finished CTA #3 (92225,0), 5 CTAs running
GPGPU-Sim uArch: core:  0, cta: 3 initialized @(92226,0)
GPGPU-Sim uArch: Shader 12 finished CTA #3 (92288,0), 5 CTAs running
GPGPU-Sim uArch: core: 12, cta: 3 initialized @(92289,0)
GPGPU-Sim uArch: Shader 7 finished CTA #3 (92329,0), 5 CTAs running
GPGPU-Sim uArch: core:  7, cta: 3 initialized @(92330,0)
GPGPU-Sim uArch: cycles simulated: 92500  inst.: 3422848 (ipc=37.0) sim_rate=67114 (inst/sec) elapsed = 0:0:00:51 / Tue Apr 16 16:46:24 2019
GPGPU-Sim uArch: Shader 3 finished CTA #3 (92655,0), 5 CTAs running
GPGPU-Sim uArch: core:  3, cta: 3 initialized @(92656,0)
GPGPU-Sim uArch: Shader 13 finished CTA #4 (92713,0), 5 CTAs running
GPGPU-Sim uArch: core: 13, cta: 4 initialized @(92714,0)
GPGPU-Sim uArch: Shader 14 finished CTA #5 (92734,0), 5 CTAs running
GPGPU-Sim uArch: core: 14, cta: 5 initialized @(92735,0)
GPGPU-Sim uArch: Shader 1 finished CTA #4 (92762,0), 5 CTAs running
GPGPU-Sim uArch: core:  1, cta: 4 initialized @(92763,0)
GPGPU-Sim uArch: Shader 10 finished CTA #4 (93261,0), 5 CTAs running
GPGPU-Sim uArch: core: 10, cta: 4 initialized @(93262,0)
GPGPU-Sim uArch: Shader 6 finished CTA #3 (93329,0), 5 CTAs running
GPGPU-Sim uArch: core:  6, cta: 3 initialized @(93330,0)
GPGPU-Sim uArch: Shader 4 finished CTA #4 (93490,0), 5 CTAs running
GPGPU-Sim uArch: core:  4, cta: 4 initialized @(93491,0)
GPGPU-Sim uArch: Shader 9 finished CTA #4 (93669,0), 5 CTAs running
GPGPU-Sim uArch: core:  9, cta: 4 initialized @(93670,0)
GPGPU-Sim uArch: Shader 11 finished CTA #5 (94185,0), 5 CTAs running
GPGPU-Sim uArch: core: 11, cta: 5 initialized @(94186,0)
GPGPU-Sim PTX: 3600000 instructions simulated : ctaid=(6,26,0) tid=(15,13,0)
GPGPU-Sim uArch: Shader 8 finished CTA #4 (94259,0), 5 CTAs running
GPGPU-Sim uArch: core:  8, cta: 4 initialized @(94260,0)
GPGPU-Sim uArch: Shader 5 finished CTA #3 (94292,0), 5 CTAs running
GPGPU-Sim uArch: core:  5, cta: 3 initialized @(94293,0)
GPGPU-Sim uArch: Shader 2 finished CTA #4 (94347,0), 5 CTAs running
GPGPU-Sim uArch: core:  2, cta: 4 initialized @(94348,0)
GPGPU-Sim uArch: Shader 7 finished CTA #4 (94414,0), 5 CTAs running
GPGPU-Sim uArch: core:  7, cta: 4 initialized @(94415,0)
GPGPU-Sim uArch: cycles simulated: 94500  inst.: 3517248 (ipc=37.2) sim_rate=67639 (inst/sec) elapsed = 0:0:00:52 / Tue Apr 16 16:46:25 2019
GPGPU-Sim uArch: Shader 12 finished CTA #4 (94755,0), 5 CTAs running
GPGPU-Sim uArch: core: 12, cta: 4 initialized @(94756,0)
GPGPU-Sim uArch: Shader 3 finished CTA #4 (95000,0), 5 CTAs running
GPGPU-Sim uArch: core:  3, cta: 4 initialized @(95001,0)
GPGPU-Sim uArch: Shader 10 finished CTA #5 (95411,0), 5 CTAs running
GPGPU-Sim uArch: core: 10, cta: 5 initialized @(95412,0)
GPGPU-Sim uArch: Shader 13 finished CTA #5 (95553,0), 5 CTAs running
GPGPU-Sim uArch: core: 13, cta: 5 initialized @(95554,0)
[...]
mf_lat_pw_table:0 	0 	0 	0 	0 	0 	0 	65 	1293 	3243 	55 	0 	0 	0 	0 	0 	0 	0 	0 	0 	0 	0 	0 	0 	0 	0 	0 	0 	0 	0 	0 	0 	
maximum concurrent accesses to same row:
dram[0]:        29        32        32        32        32        32        32        32        32        32        32        31        32        32        32        32 
dram[1]:        32        32        32        29        32        32        32        32        32        32        32        32        32        32        32        32 
dram[2]:        32        32        32        32        32        32        32        32        32        32        31        32        32        32        32        32 
dram[3]:        32        32        31        32        32        32        32        32        32        32        32        32        32        32        32        32 
dram[4]:        28        32        32        32        32        32        32        32        32        32        32        30        32        32        32        32 
dram[5]:        32        32        32        30        32        32        32        32        32        32        32        32        32        32        32        32 
maximum service time to same row:
dram[0]:     27870     29643     27748     29634     26097     29578     31258     29868     27038     28046     26998     28171     27346     29660     26481     29652 
dram[1]:     26765     44147     26982     44138     27447     44241     27443     43650     27445     39735     26797     28104     27479     39385     27243     45621 
dram[2]:     29052     27141     29637     37231     29791     26207     29916     26624     28044     26559     27874     26891     29663     27338     29654     27441 
dram[3]:     44150     26075     44141     25999     44275     27744     43681     27452     42354     26882     28107     27274     39387     27472     45624     26772 
dram[4]:     25717     29640     27218     29631     26964     30350     26406     29908     26405     28044     27347     29474     27306     29657     27052     29649 
dram[5]:     26222     44144     25925     44135     27801     44242     27556     43369     27556     42347     27084     28796     27102     40237     27154     45618 
average row accesses per activate:
dram[0]:  2.082071  2.090714  2.056045  2.062926  2.072437  2.088222  2.078591  2.100152  2.054777  2.073669  2.095472  2.105693  2.110012  2.102800  2.089119  2.101806 
dram[1]:  2.067070  2.082371  2.081543  2.075808  2.087184  2.065662  2.089212  2.085923  2.091751  2.083064  2.073462  2.069590  2.101189  2.097134  2.110226  2.083174 
dram[2]:  2.093040  2.084767  2.071397  2.056577  2.092125  2.078075  2.107724  2.083472  2.081683  2.065722  2.102714  2.106015  2.098298  2.105697  2.106092  2.093693 
dram[3]:  2.071491  2.067874  2.070520  2.084579  2.069365  2.085597  2.082091  2.096477  2.087478  2.093886  2.072990  2.068531  2.096520  2.106848  2.087624  2.106975 
dram[4]:  2.077436  2.093806  2.059368  2.072850  2.073613  2.088107  2.085007  2.107390  2.063126  2.070906  2.102993  2.106015  2.109773  2.097430  2.086005  2.103310 
dram[5]:  2.065639  2.074867  2.076343  2.083223  2.081640  2.072980  2.093385  2.087293  2.088736  2.082613  2.074342  2.074977  2.103769  2.092426  2.110214  2.087260 
average row locality = 2214489/1061938 = 2.085328
number of total memory accesses made:
dram[0]:         0         0         0         0         0         0         0         0         0         0         0         0         0         0         0         0 
dram[1]:         0         0         0         0         0         0         0         0         0         0         0         0         0         0         0         0 
dram[2]:         0         0         0         0         0         0         0         0         0         0         0         0         0         0         0         0 
dram[3]:         0         0         0         0         0         0         0         0         0         0         0         0         0         0         0         0 
dram[4]:         0         0         0         0         0         0         0         0         0         0         0         0         0         0         0         0 
dram[5]:         0         0         0         0         0         0         0         0         0         0         0         0         0         0         0         0 
total accesses: 0
min_bank_accesses = 0!
min_chip_accesses = 0!
number of total read accesses:
dram[0]:     11414     11129     11294     11041     11438     11161     11444     11137     11546     11239     10972     10630     10536     10288     10541     10343 
dram[1]:     11498     11439     11378     11332     11535     11499     11488     11413     11588     11530     11039     10926     10646     10583     10721     10651 
dram[2]:     11108     11396     11041     11286     11143     11502     11148     11457     11246     11571     10690     10844     10274     10525     10352     10545 
dram[3]:     11434     11466     11314     11363     11469     11559     11427     11509     11530     11612     11011     11009     10590     10642     10655     10689 
dram[4]:     11345     11106     11298     11065     11461     11192     11440     11166     11538     11234     10914     10705     10507     10299     10532     10347 
dram[5]:     11464     11412     11357     11329     11562     11486     11492     11426     11649     11533     11009     10957     10659     10598     10681     10629 
total reads: 1066218
bank skew: 11649/10274 = 1.13
chip skew: 179279/176128 = 1.02
number of total write accesses:
dram[0]:     12357     12287     12295     12268     12337     12296     12333     12286     12349     12293     11657     11564     11214     11190     11213     11190 
dram[1]:     12387     12350     12362     12299     12405     12347     12352     12281     12350     12319     11682     11587     11261     11223     11276     11214 
dram[2]:     12288     12362     12256     12305     12316     12373     12292     12330     12302     12348     11624     11564     11179     11210     11187     11198 
dram[3]:     12326     12389     12292     12347     12308     12392     12313     12351     12309     12363     11653     11629     11218     11265     11240     11272 
dram[4]:     12344     12286     12290     12267     12342     12318     12327     12304     12353     12277     11567     11564     11211     11164     11200     11193 
dram[5]:     12390     12339     12332     12276     12406     12374     12337     12294     12384     12315     11620     11598     11277     11226     11261     11210 
total reads: 1148271
bank skew: 12406/11164 = 1.11
chip skew: 191695/191007 = 1.00
average mf latency per bank:
dram[0]:        373       361       369       357       373       357       379       362       368       354       370       358       370       360       367       356
dram[1]:        377       374       369       365       369       366       377       375       364       362       376       374       373       371       367       366
dram[2]:        359       369       355       364       357       368       361       373       351       362       360       367       359       365       355       363
dram[3]:        374       379       365       370       368       370       374       377       361       364       370       377       370       374       366       370
dram[4]:        372       357       368       354       368       355       376       357       364       349       369       355       368       355       366       352
dram[5]:        376       376       368       367       370       371       376       375       360       363       374       373       370       371       367       368
maximum mf latency per bank:
dram[0]:       1759      1633      1735      1711      1872      1753      1844      1722      1833      1724      1717      1664      1802      1669      1739      1704
dram[1]:       1875      1780      1782      1719      1836      1809      1818      1798      1678      1842      1727      1792      1714      1968      1627      1733
dram[2]:       1674      1790      1736      1837      1692      1880      1622      1746      1655      1780      1697      1801      1717      1695      1814      1815
dram[3]:       1804      1869      1796      1787      1728      1705      1739      1848      1886      1705      1679      1741      1715      1777      1658      1632
dram[4]:       1720      1761      1749      1768      1842      1807      1875      1784      1929      1609      1820      1722      1740      1750      1729      1629
dram[5]:       1996      1815      1963      1814      1899      1783      2073      1787      1906      1774      1963      1778      1820      1782      1820      1681

Number of Memory Banks Accessed per Memory Operation per Warp (from 0):
0	0	0	0	0	0	0	0	0	0	0	0	0	0	0	0	0	0	0	0	0	0	0	0	0	0	0	0	0	0	0	0	0	0	0	0	0	0	0	0	0	0	0	0	0	0	0	0	0	0	0	0	0	0	0	0	0	0	0	0	0	0	0	0	0	0	0	0	0	0	0	0	0	0	0	0	0	0	0	0	0	0	0	0	0	0	0	0	0	0	0	0	0	0	0	0	
Average # of Memory Banks Accessed per Memory Operation per Warp=-nan

position of mrq chosen
0	0	0	0	0	0	0	0	0	0	0	0	0	0	0	0	

average position of mrq chosen = -nan
Memory Partition 0: 
Cache L2_bank_000:
MSHR contents

Cache L2_bank_001:
MSHR contents

In Dram Latency Queue (total = 0): 
DRAM[0]: 16 bks, busW=4 BL=8 CL=12, tRRD=2 tCCD=6, tRCD=12 tRAS=28 tRP=12 tRC=40
n_cmd=3075906 n_nop=2169394 n_act=176183 n_pre=176167 n_req=367282 n_rd=352306 n_write=201856 bw_util=0.3603
n_activity=2587343 dram_eff=0.4284
bk0: 22828a 2360280i bk1: 22258a 2370222i bk2: 22588a 2335644i bk3: 22082a 2342675i bk4: 22876a 2320959i bk5: 22322a 2331583i bk6: 22888a 2311097i bk7: 22274a 2317661i bk8: 23092a 2344397i bk9: 22478a 2350053i bk10: 21944a 2376291i bk11: 21260a 2386987i bk12: 21072a 2384598i bk13: 20576a 2389704i bk14: 21082a 2375194i bk15: 20686a 2384747i 
dram_util_bins: 0 0 0 0 0 0 0 0 0 0
dram_eff_bins: 0 0 0 0 0 0 0 0 0 0
mrqq: max=16 avg=4.88738
Memory Partition 1: 
Cache L2_bank_002:
MSHR contents

Cache L2_bank_003:
MSHR contents

In Dram Latency Queue (total = 0): 
DRAM[1]: 16 bks, busW=4 BL=8 CL=12, tRRD=2 tCCD=6, tRCD=12 tRAS=28 tRP=12 tRC=40
n_cmd=3075906 n_nop=2159672 n_act=178025 n_pre=178009 n_req=370961 n_rd=358532 n_write=201668 bw_util=0.3643
n_activity=2609072 dram_eff=0.4294
bk0: 22996a 2350845i bk1: 22878a 2349470i bk2: 22756a 2337522i bk3: 22664a 2333812i bk4: 23070a 2321907i bk5: 22998a 2312863i bk6: 22976a 2307905i bk7: 22826a 2308252i bk8: 23176a 2350347i bk9: 23060a 2343884i bk10: 22078a 2366406i bk11: 21852a 2370703i bk12: 21292a 2383513i bk13: 21166a 2383130i bk14: 21442a 2376725i bk15: 21302a 2371152i 
dram_util_bins: 0 0 0 0 0 0 0 0 0 0
dram_eff_bins: 0 0 0 0 0 0 0 0 0 0
mrqq: max=16 avg=4.99174
Memory Partition 2: 
Cache L2_bank_004:
MSHR contents

Cache L2_bank_005:
MSHR contents

In Dram Latency Queue (total = 0): 
DRAM[2]: 16 bks, busW=4 BL=8 CL=12, tRRD=2 tCCD=6, tRCD=12 tRAS=28 tRP=12 tRC=40
n_cmd=3075906 n_nop=2170219 n_act=175833 n_pre=175817 n_req=367262 n_rd=352256 n_write=201781 bw_util=0.3602
n_activity=2582706 dram_eff=0.429
bk0: 22216a 2373093i bk1: 22792a 2356884i bk2: 22082a 2346945i bk3: 22572a 2332310i bk4: 22286a 2331338i bk5: 23004a 2317407i bk6: 22296a 2322359i bk7: 22914a 2307539i bk8: 22492a 2353987i bk9: 23142a 2342083i bk10: 21380a 2379961i bk11: 21688a 2379650i bk12: 20548a 2389058i bk13: 21050a 2385112i bk14: 20704a 2382396i bk15: 21090a 2378537i 
dram_util_bins: 0 0 0 0 0 0 0 0 0 0
dram_eff_bins: 0 0 0 0 0 0 0 0 0 0
mrqq: max=16 avg=4.90482
Memory Partition 3: 
Cache L2_bank_006:
MSHR contents
MSHR: tag=0x8073ff80, atomic=0 1 entries : 0x7f58f968e460 :  mf: uid=38413749, sid02:w15, part=3, addr=0x8073ffc0, load , size=64, unknown  status = IN_PARTITION_DRAM (2330229), 
MSHR: tag=0x80733f80, atomic=0 1 entries : 0x7f58f97cc760 :  mf: uid=38413748, sid02:w14, part=3, addr=0x80733fc0, load , size=64, unknown  status = IN_PARTITION_DRAM (2330225), 

Cache L2_bank_007:
MSHR contents

In Dram Latency Queue (total = 0): 
DRAM[3]: 16 bks, busW=4 BL=8 CL=12, tRRD=2 tCCD=6, tRCD=12 tRAS=28 tRP=12 tRC=40
n_cmd=3075906 n_nop=2159572 n_act=177996 n_pre=177980 n_req=370946 n_rd=358558 n_write=201800 bw_util=0.3644
n_activity=2606039 dram_eff=0.43
bk0: 22868a 2352684i bk1: 22932a 2348388i bk2: 22628a 2338065i bk3: 22726a 2336210i bk4: 22938a 2316705i bk5: 23118a 2317746i bk6: 22854a 2307365i bk7: 23018a 2307913i bk8: 23060a 2350326i bk9: 23224a 2350469i bk10: 22022a 2364051i bk11: 22018a 2366193i bk12: 21180a 2382509i bk13: 21284a 2380562i bk14: 21310a 2372341i bk15: 21378a 2376184i 
dram_util_bins: 0 0 0 0 0 0 0 0 0 0
dram_eff_bins: 0 0 0 0 0 0 0 0 0 0
mrqq: max=16 avg=4.97634
Memory Partition 4: 
Cache L2_bank_008:
MSHR contents

Cache L2_bank_009:
MSHR contents

In Dram Latency Queue (total = 0): 
DRAM[4]: 16 bks, busW=4 BL=8 CL=12, tRRD=2 tCCD=6, tRCD=12 tRAS=28 tRP=12 tRC=40
n_cmd=3075906 n_nop=2170090 n_act=175942 n_pre=175926 n_req=367156 n_rd=352298 n_write=201650 bw_util=0.3602
n_activity=2586831 dram_eff=0.4283
bk0: 22690a 2361167i bk1: 22212a 2370665i bk2: 22596a 2338606i bk3: 22130a 2341724i bk4: 22922a 2324090i bk5: 22384a 2327665i bk6: 22880a 2310667i bk7: 22332a 2316421i bk8: 23076a 2343215i bk9: 22468a 2351146i bk10: 21828a 2375756i bk11: 21410a 2382596i bk12: 21014a 2386224i bk13: 20598a 2388397i bk14: 21064a 2376628i bk15: 20694a 2382882i 
dram_util_bins: 0 0 0 0 0 0 0 0 0 0
dram_eff_bins: 0 0 0 0 0 0 0 0 0 0
mrqq: max=16 avg=4.8798
Memory Partition 5: 
Cache L2_bank_010:
MSHR contents

Cache L2_bank_011:
MSHR contents
MSHR: tag=0x8073bf80, atomic=0 1 entries : 0x7f58f9770890 :  mf: uid=38413750, sid02:w15, part=5, addr=0x8073bfc0, load , size=64, unknown  status = IN_PARTITION_DRAM (2330231), 

In Dram Latency Queue (total = 0): 
DRAM[5]: 16 bks, busW=4 BL=8 CL=12, tRRD=2 tCCD=6, tRCD=12 tRAS=28 tRP=12 tRC=40
n_cmd=3075906 n_nop=2159831 n_act=177960 n_pre=177944 n_req=370882 n_rd=358486 n_write=201685 bw_util=0.3642
n_activity=2606948 dram_eff=0.4298
bk0: 22928a 2352657i bk1: 22824a 2349353i bk2: 22714a 2341547i bk3: 22658a 2335582i bk4: 23124a 2318776i bk5: 22972a 2316757i bk6: 22984a 2311082i bk7: 22852a 2307462i bk8: 23298a 2350175i bk9: 23066a 2347819i bk10: 22018a 2370935i bk11: 21914a 2365476i bk12: 21318a 2379289i bk13: 21196a 2381436i bk14: 21362a 2376200i bk15: 21258a 2371827i 
dram_util_bins: 0 0 0 0 0 0 0 0 0 0
dram_eff_bins: 0 0 0 0 0 0 0 0 0 0
mrqq: max=16 avg=4.98602

========= L2 cache stats =========
L2_cache_bank[0]: Access = 120216, Miss = 89185, Miss_rate = 0.742, Pending_hits = 13855, Reservation_fails = 509823
L2_cache_bank[1]: Access = 120107, Miss = 86968, Miss_rate = 0.724, Pending_hits = 15766, Reservation_fails = 472371
L2_cache_bank[2]: Access = 120205, Miss = 89893, Miss_rate = 0.748, Pending_hits = 14301, Reservation_fails = 529253
L2_cache_bank[3]: Access = 120112, Miss = 89373, Miss_rate = 0.744, Pending_hits = 13643, Reservation_fails = 508170
L2_cache_bank[4]: Access = 120205, Miss = 87002, Miss_rate = 0.724, Pending_hits = 15764, Reservation_fails = 468180
L2_cache_bank[5]: Access = 120125, Miss = 89126, Miss_rate = 0.742, Pending_hits = 13980, Reservation_fails = 508885
L2_cache_bank[6]: Access = 120182, Miss = 89430, Miss_rate = 0.744, Pending_hits = 13622, Reservation_fails = 506300
L2_cache_bank[7]: Access = 120124, Miss = 89849, Miss_rate = 0.748, Pending_hits = 14114, Reservation_fails = 529609
L2_cache_bank[8]: Access = 120100, Miss = 89035, Miss_rate = 0.741, Pending_hits = 13950, Reservation_fails = 510300
L2_cache_bank[9]: Access = 120124, Miss = 87114, Miss_rate = 0.725, Pending_hits = 15610, Reservation_fails = 468949
L2_cache_bank[10]: Access = 120099, Miss = 89873, Miss_rate = 0.748, Pending_hits = 14134, Reservation_fails = 524273
L2_cache_bank[11]: Access = 120128, Miss = 89370, Miss_rate = 0.744, Pending_hits = 13670, Reservation_fails = 508061
L2_total_cache_accesses = 1441727
L2_total_cache_misses = 1066218
L2_total_cache_miss_rate = 0.7395
L2_total_cache_pending_hits = 172409
L2_total_cache_reservation_fails = 6044174
L2_total_cache_breakdown:
	L2_cache_stats_breakdown[GLOBAL_ACC_R][HIT] = 109477
	L2_cache_stats_breakdown[GLOBAL_ACC_R][HIT_RESERVED] = 19635
	L2_cache_stats_breakdown[GLOBAL_ACC_R][MISS] = 132862
	L2_cache_stats_breakdown[GLOBAL_ACC_R][RESERVATION_FAIL] = 21473
	L2_cache_stats_breakdown[CONST_ACC_R][HIT] = 11
	L2_cache_stats_breakdown[CONST_ACC_R][HIT_RESERVED] = 3
	L2_cache_stats_breakdown[CONST_ACC_R][MISS] = 1
	L2_cache_stats_breakdown[CONST_ACC_R][RESERVATION_FAIL] = 93
	L2_cache_stats_breakdown[GLOBAL_ACC_W][HIT] = 93546
	L2_cache_stats_breakdown[GLOBAL_ACC_W][HIT_RESERVED] = 152753
	L2_cache_stats_breakdown[GLOBAL_ACC_W][MISS] = 933349
	L2_cache_stats_breakdown[GLOBAL_ACC_W][RESERVATION_FAIL] = 6021972
	L2_cache_stats_breakdown[INST_ACC_R][HIT] = 66
	L2_cache_stats_breakdown[INST_ACC_R][HIT_RESERVED] = 18
	L2_cache_stats_breakdown[INST_ACC_R][MISS] = 6
	L2_cache_stats_breakdown[INST_ACC_R][RESERVATION_FAIL] = 636
L2_cache_data_port_util = 0.020
L2_cache_fill_port_util = 0.153

icnt_total_pkts_mem_to_simt=2490013
icnt_total_pkts_simt_to_mem=2752447
LD_mem_lat_dist  0 0 0 0 0 0 0 0 0 0 0 0 0 0 0 0 0 0 0 0 0 0 0 0 0 0 0
ST_mem_lat_dist  0 0 0 0 0 0 0 0 0 0 0 0 0 0 0 0 0 0 0 0 0 0 0 0 0 0 0
----------------------------Interconnect-DETAILS--------------------------------
Class 0:
Packet latency average = 16.4797
	minimum = 6
	maximum = 378
Network latency average = 13.2064
	minimum = 6
	maximum = 352
Slowest packet = 2643951
Flit latency average = 11.441
	minimum = 6
	maximum = 350
Slowest flit = 4644489
Fragmentation average = 0.111793
	minimum = 0
	maximum = 305
Injected packet rate average = 0.0398027
	minimum = 0.0347632 (at node 14)
	maximum = 0.0447911 (at node 22)
Accepted packet rate average = 0.0398027
	minimum = 0.0347632 (at node 14)
	maximum = 0.0447911 (at node 22)
Injected flit rate average = 0.099498
	minimum = 0.0695428 (at node 14)
	maximum = 0.134381 (at node 22)
Accepted flit rate average= 0.099498
	minimum = 0.0895411 (at node 23)
	maximum = 0.109457 (at node 4)
Injected packet length average = 2.49978
Accepted packet length average = 2.49978
Total in-flight flits = 0 (0 measured)
====== Overall Traffic Statistics ======
====== Traffic class 0 ======
Packet latency average = 46.5935 (4 samples)
	minimum = 6 (4 samples)
	maximum = 742 (4 samples)
Network latency average = 28.914 (4 samples)
	minimum = 6 (4 samples)
	maximum = 653.25 (4 samples)
Flit latency average = 30.1357 (4 samples)
	minimum = 6 (4 samples)
	maximum = 651.75 (4 samples)
Fragmentation average = 0.176406 (4 samples)
	minimum = 0 (4 samples)
	maximum = 442.25 (4 samples)
Injected packet rate average = 0.0435835 (4 samples)
	minimum = 0.038403 (4 samples)
	maximum = 0.0490798 (4 samples)
Accepted packet rate average = 0.0435835 (4 samples)
	minimum = 0.038403 (4 samples)
	maximum = 0.0490798 (4 samples)
Injected flit rate average = 0.0891832 (4 samples)
	minimum = 0.0734214 (4 samples)
	maximum = 0.108144 (4 samples)
Accepted flit rate average = 0.0891832 (4 samples)
	minimum = 0.0749399 (4 samples)
	maximum = 0.105057 (4 samples)
Injected packet size average = 2.04626 (4 samples)
Accepted packet size average = 2.04626 (4 samples)
Hops average = 1 (4 samples)
----------------------------END-of-Interconnect-DETAILS-------------------------


gpgpu_simulation_time = 0 days, 0 hrs, 26 min, 10 sec (1570 sec)
gpgpu_simulation_rate = 122890 (inst/sec)
gpgpu_simulation_rate = 1484 (cycle/sec)
GPGPU-Sim: synchronize waiting for inactive GPU simulation
GPGPU-Sim API: Stream Manager State
GPGPU-Sim: detected inactive GPU simulation thread
Naive transpose average time:     506474.125 ms
Optimized transpose average time: 271953.000 ms

Test PASSED
GPGPU-Sim: exit_simulation called
GPGPU-Sim: simulation thread signaled exit

Press ENTER to exit...
