

        *** GPGPU-Sim Simulator Version 3.2.2  [build 0] ***


GPGPU-Sim PTX: simulation mode 0 (can change with PTX_SIM_MODE_FUNC environment variable:
               1=functional simulation only, 0=detailed performance simulator)
GPGPU-Sim: Configuration options:

-network_mode                           1 # Interconnection network mode
-inter_config_file   config_fermi_islip.icnt # Interconnection network config file
-gpgpu_ptx_use_cuobjdump                    1 # Use cuobjdump to extract ptx and sass from binaries
-gpgpu_experimental_lib_support                    0 # Try to extract code from cuda libraries [Broken because of unknown cudaGetExportTable]
-gpgpu_ptx_convert_to_ptxplus                    0 # Convert SASS (native ISA) to ptxplus and run ptxplus
-gpgpu_ptx_force_max_capability                   20 # Force maximum compute capability
-gpgpu_ptx_inst_debug_to_file                    0 # Dump executed instructions' debug information to file
-gpgpu_ptx_inst_debug_file       inst_debug.txt # Executed instructions' debug output file
-gpgpu_ptx_inst_debug_thread_uid                    1 # Thread UID for executed instructions' debug output
-gpgpu_simd_model                       1 # 1 = post-dominator
-gpgpu_shader_core_pipeline              1536:32 # shader core pipeline config, i.e., {<nthread>:<warpsize>}
-gpgpu_tex_cache:l1  4:128:24,L:R:m:N:L,F:128:4,128:2 # per-shader L1 texture cache  (READ-ONLY) config  {<nsets>:<bsize>:<assoc>,<rep>:<wr>:<alloc>:<wr_alloc>,<mshr>:<N>:<merge>,<mq>:<rf>}
-gpgpu_const_cache:l1 64:64:2,L:R:f:N:L,A:2:32,4 # per-shader L1 constant memory cache  (READ-ONLY) config  {<nsets>:<bsize>:<assoc>,<rep>:<wr>:<alloc>:<wr_alloc>,<mshr>:<N>:<merge>,<mq>} 
-gpgpu_cache:il1     4:128:4,L:R:f:N:L,A:2:32,4 # shader L1 instruction cache config  {<nsets>:<bsize>:<assoc>,<rep>:<wr>:<alloc>:<wr_alloc>,<mshr>:<N>:<merge>,<mq>} 
-gpgpu_cache:dl1     32:128:2,L:L:m:N:H,A:32:8,8 # per-shader L1 data cache config  {<nsets>:<bsize>:<assoc>,<rep>:<wr>:<alloc>:<wr_alloc>,<mshr>:<N>:<merge>,<mq> | none}
-gpgpu_cache:dl1PrefL1                 none # per-shader L1 data cache config  {<nsets>:<bsize>:<assoc>,<rep>:<wr>:<alloc>:<wr_alloc>,<mshr>:<N>:<merge>,<mq> | none}
-gpgpu_cache:dl1PreShared                 none # per-shader L1 data cache config  {<nsets>:<bsize>:<assoc>,<rep>:<wr>:<alloc>:<wr_alloc>,<mshr>:<N>:<merge>,<mq> | none}
-gmem_skip_L1D                          0 # global memory access skip L1D cache (implements -Xptxas -dlcm=cg, default=no skip)
-gpgpu_perfect_mem                      0 # enable perfect memory mode (no cache miss)
-n_regfile_gating_group                    4 # group of lanes that should be read/written together)
-gpgpu_clock_gated_reg_file                    0 # enable clock gated reg file for power calculations
-gpgpu_clock_gated_lanes                    0 # enable clock gated lanes for power calculations
-gpgpu_shader_registers                32768 # Number of registers per shader core. Limits number of concurrent CTAs. (default 8192)
-gpgpu_shader_cta                       8 # Maximum number of concurrent CTAs in shader (default 8)
-gpgpu_num_cta_barriers                   16 # Maximum number of named barriers per CTA (default 16)
-gpgpu_n_clusters                      15 # number of processing clusters
-gpgpu_n_cores_per_cluster                    1 # number of simd cores per cluster
-gpgpu_n_cluster_ejection_buffer_size                    8 # number of packets in ejection buffer
-gpgpu_n_ldst_response_buffer_size                    2 # number of response packets in ld/st unit ejection buffer
-gpgpu_shmem_size                   16384 # Size of shared memory per shader core (default 16kB)
-gpgpu_shmem_size                   49152 # Size of shared memory per shader core (default 16kB)
-gpgpu_shmem_size_PrefL1                16384 # Size of shared memory per shader core (default 16kB)
-gpgpu_shmem_size_PrefShared                16384 # Size of shared memory per shader core (default 16kB)
-gpgpu_shmem_num_banks                   32 # Number of banks in the shared memory in each shader core (default 16)
-gpgpu_shmem_limited_broadcast                    0 # Limit shared memory to do one broadcast per cycle (default on)
-gpgpu_shmem_warp_parts                    1 # Number of portions a warp is divided into for shared memory bank conflict check 
-gpgpu_warpdistro_shader                   -1 # Specify which shader core to collect the warp size distribution from
-gpgpu_warp_issue_shader                    0 # Specify which shader core to collect the warp issue distribution from
-gpgpu_local_mem_map                    1 # Mapping from local memory space address to simulated GPU physical address space (default = enabled)
-gpgpu_num_reg_banks                   16 # Number of register banks (default = 8)
-gpgpu_reg_bank_use_warp_id                    0 # Use warp ID in mapping registers to banks (default = off)
-gpgpu_operand_collector_num_units_sp                    6 # number of collector units (default = 4)
-gpgpu_operand_collector_num_units_sfu                    8 # number of collector units (default = 4)
-gpgpu_operand_collector_num_units_mem                    2 # number of collector units (default = 2)
-gpgpu_operand_collector_num_units_gen                    0 # number of collector units (default = 0)
-gpgpu_operand_collector_num_in_ports_sp                    2 # number of collector unit in ports (default = 1)
-gpgpu_operand_collector_num_in_ports_sfu                    1 # number of collector unit in ports (default = 1)
-gpgpu_operand_collector_num_in_ports_mem                    1 # number of collector unit in ports (default = 1)
-gpgpu_operand_collector_num_in_ports_gen                    0 # number of collector unit in ports (default = 0)
-gpgpu_operand_collector_num_out_ports_sp                    2 # number of collector unit in ports (default = 1)
-gpgpu_operand_collector_num_out_ports_sfu                    1 # number of collector unit in ports (default = 1)
-gpgpu_operand_collector_num_out_ports_mem                    1 # number of collector unit in ports (default = 1)
-gpgpu_operand_collector_num_out_ports_gen                    0 # number of collector unit in ports (default = 0)
-gpgpu_coalesce_arch                   13 # Coalescing arch (default = 13, anything else is off for now)
-gpgpu_num_sched_per_core                    2 # Number of warp schedulers per core
-gpgpu_max_insn_issue_per_warp                    1 # Max number of instructions that can be issued per warp in one cycle by scheduler
-gpgpu_simt_core_sim_order                    1 # Select the simulation order of cores in a cluster (0=Fix, 1=Round-Robin)
-gpgpu_pipeline_widths        2,1,1,2,1,1,2 # Pipeline widths ID_OC_SP,ID_OC_SFU,ID_OC_MEM,OC_EX_SP,OC_EX_SFU,OC_EX_MEM,EX_WB
-gpgpu_num_sp_units                     2 # Number of SP units (default=1)
-gpgpu_num_sfu_units                    1 # Number of SF units (default=1)
-gpgpu_num_mem_units                    1 # Number if ldst units (default=1) WARNING: not hooked up to anything
-gpgpu_scheduler                      gto # Scheduler configuration: < lrr | gto | two_level_active > If two_level_active:<num_active_warps>:<inner_prioritization>:<outer_prioritization>For complete list of prioritization values see shader.h enum scheduler_prioritization_typeDefault: gto
-gpgpu_dram_scheduler                    1 # 0 = fifo, 1 = FR-FCFS (defaul)
-gpgpu_dram_partition_queues              8:8:8:8 # i2$:$2d:d2$:$2i
-l2_ideal                               0 # Use a ideal L2 cache that always hit
-gpgpu_cache:dl2     64:128:8,L:B:m:W:L,A:32:4,4:0,32 # unified banked L2 data cache config  {<nsets>:<bsize>:<assoc>,<rep>:<wr>:<alloc>:<wr_alloc>,<mshr>:<N>:<merge>,<mq>}
-gpgpu_cache:dl2_texture_only                    0 # L2 cache used for texture only
-gpgpu_n_mem                            6 # number of memory modules (e.g. memory controllers) in gpu
-gpgpu_n_sub_partition_per_mchannel                    2 # number of memory subpartition in each memory module
-gpgpu_n_mem_per_ctrlr                    2 # number of memory chips per memory controller
-gpgpu_memlatency_stat                   14 # track and display latency statistics 0x2 enables MC, 0x4 enables queue logs
-gpgpu_frfcfs_dram_sched_queue_size                   16 # 0 = unlimited (default); # entries per chip
-gpgpu_dram_return_queue_size                  116 # 0 = unlimited (default); # entries per chip
-gpgpu_dram_buswidth                    4 # default = 4 bytes (8 bytes per cycle at DDR)
-gpgpu_dram_burst_length                    8 # Burst length of each DRAM request (default = 4 data bus cycle)
-dram_data_command_freq_ratio                    4 # Frequency ratio between DRAM data bus and command bus (default = 2 times, i.e. DDR)
-gpgpu_dram_timing_opt nbk=16:CCD=2:RRD=6:RCD=12:RAS=28:RP=12:RC=40: CL=12:WL=4:CDLR=5:WR=12:nbkgrp=4:CCDL=3:RTPL=2 # DRAM timing parameters = {nbk:tCCD:tRRD:tRCD:tRAS:tRP:tRC:CL:WL:tCDLR:tWR:nbkgrp:tCCDL:tRTPL}
-rop_latency                          120 # ROP queue latency (default 85)
-dram_latency                         100 # DRAM latency (default 30)
-gpgpu_mem_addr_mapping dramid@8;00000000.00000000.00000000.00000000.0000RRRR.RRRRRRRR.BBBCCCCB.CCSSSSSS # mapping memory address to dram model {dramid@<start bit>;<memory address map>}
-gpgpu_mem_addr_test                    0 # run sweep test to check address mapping for aliased address
-gpgpu_mem_address_mask                    1 # 0 = old addressing mask, 1 = new addressing mask, 2 = new add. mask + flipped bank sel and chip sel bits
-gpuwattch_xml_file  gpuwattch_gtx480.xml # GPUWattch XML file
-power_simulation_enabled                    1 # Turn on power simulator (1=On, 0=Off)
-power_per_cycle_dump                    0 # Dump detailed power output each cycle
-power_trace_enabled                    0 # produce a file for the power trace (1=On, 0=Off)
-power_trace_zlevel                     6 # Compression level of the power trace output log (0=no comp, 9=highest)
-steady_power_levels_enabled                    0 # produce a file for the steady power levels (1=On, 0=Off)
-steady_state_definition                  8:4 # allowed deviation:number of samples
-gpgpu_max_cycle                        0 # terminates gpu simulation early (0 = no limit)
-gpgpu_max_insn                         0 # terminates gpu simulation early (0 = no limit)
-gpgpu_max_cta                          0 # terminates gpu simulation early (0 = no limit)
-gpgpu_runtime_stat                   500 # display runtime statistics such as dram utilization {<freq>:<flag>}
-liveness_message_freq                    1 # Minimum number of seconds between simulation liveness messages (0 = always print)
-gpgpu_flush_l1_cache                    0 # Flush L1 cache at the end of each kernel call
-gpgpu_flush_l2_cache                    0 # Flush L2 cache at the end of each kernel call
-gpgpu_deadlock_detect                    1 # Stop the simulation at deadlock (1=on (default), 0=off)
-gpgpu_ptx_instruction_classification                    0 # if enabled will classify ptx instruction types per kernel (Max 255 kernels now)
-gpgpu_ptx_sim_mode                     0 # Select between Performance (default) or Functional simulation (1)
-gpgpu_clock_domains 700.0:700.0:700.0:924.0 # Clock Domain Frequencies in MhZ {<Core Clock>:<ICNT Clock>:<L2 Clock>:<DRAM Clock>}
-gpgpu_max_concurrent_kernel                    8 # maximum kernels that can run concurrently on GPU
-gpgpu_cflog_interval                    0 # Interval between each snapshot in control flow logger
-visualizer_enabled                     0 # Turn on visualizer output (1=On, 0=Off)
-visualizer_outputfile                 NULL # Specifies the output log file for visualizer
-visualizer_zlevel                      6 # Compression level of the visualizer output log (0=no comp, 9=highest)
-trace_enabled                          0 # Turn on traces
-trace_components                    none # comma seperated list of traces to enable. Complete list found in trace_streams.tup. Default none
-trace_sampling_core                    0 # The core which is printed using CORE_DPRINTF. Default 0
-trace_sampling_memory_partition                   -1 # The memory partition which is printed using MEMPART_DPRINTF. Default -1 (i.e. all)
-enable_ptx_file_line_stats                    1 # Turn on PTX source line statistic profiling. (1 = On)
-ptx_line_stats_filename gpgpu_inst_stats.txt # Output file for PTX source line statistics.
-save_embedded_ptx                      0 # saves ptx files embedded in binary as <n>.ptx
-keep                                   0 # keep intermediate files created by GPGPU-Sim when interfacing with external programs
-gpgpu_ptx_save_converted_ptxplus                    0 # Saved converted ptxplus to a file
-ptx_opcode_latency_int         4,13,4,5,145 # Opcode latencies for integers <ADD,MAX,MUL,MAD,DIV>Default 1,1,19,25,145
-ptx_opcode_latency_fp          4,13,4,5,39 # Opcode latencies for single precision floating points <ADD,MAX,MUL,MAD,DIV>Default 1,1,1,1,30
-ptx_opcode_latency_dp         8,19,8,8,330 # Opcode latencies for double precision floating points <ADD,MAX,MUL,MAD,DIV>Default 8,8,8,8,335
-ptx_opcode_initiation_int            1,2,2,1,8 # Opcode initiation intervals for integers <ADD,MAX,MUL,MAD,DIV>Default 1,1,4,4,32
-ptx_opcode_initiation_fp            1,2,1,1,4 # Opcode initiation intervals for single precision floating points <ADD,MAX,MUL,MAD,DIV>Default 1,1,1,1,5
-ptx_opcode_initiation_dp         8,16,8,8,130 # Opcode initiation intervals for double precision floating points <ADD,MAX,MUL,MAD,DIV>Default 8,8,8,8,130
DRAM Timing Options:
nbk                                    16 # number of banks
CCD                                     2 # column to column delay
RRD                                     6 # minimal delay between activation of rows in different banks
RCD                                    12 # row to column delay
RAS                                    28 # time needed to activate row
RP                                     12 # time needed to precharge (deactivate) row
RC                                     40 # row cycle time
CDLR                                    5 # switching from write to read (changes tWTR)
WR                                     12 # last data-in to row precharge
CL                                     12 # CAS latency
WL                                      4 # Write latency
nbkgrp                                  4 # number of bank groups
CCDL                                    3 # column to column delay between accesses to different bank groups
RTPL                                    2 # read to precharge delay between accesses to different bank groups
Total number of memory sub partition = 12
addr_dec_mask[CHIP]  = 0000000000000000 	high:64 low:0
addr_dec_mask[BK]    = 000000000000e100 	high:16 low:8
addr_dec_mask[ROW]   = 000000000fff0000 	high:28 low:16
addr_dec_mask[COL]   = 0000000000001eff 	high:13 low:0
addr_dec_mask[BURST] = 000000000000003f 	high:6 low:0
sub_partition_id_mask = 0000000000000100
GPGPU-Sim uArch: clock freqs: 700000000.000000:700000000.000000:700000000.000000:924000000.000000
GPGPU-Sim uArch: clock periods: 0.00000000142857142857:0.00000000142857142857:0.00000000142857142857:0.00000000108225108225
*** Initializing Memory Statistics ***
GPGPU-Sim uArch: interconnect node map (shaderID+MemID to icntID)
GPGPU-Sim uArch: Memory nodes ID start from index: 15
GPGPU-Sim uArch:    0   1   2   3   4
GPGPU-Sim uArch:    5   6   7   8   9
GPGPU-Sim uArch:   10  11  12  13  14
GPGPU-Sim uArch:   15  16  17  18  19
GPGPU-Sim uArch:   20  21  22  23  24
GPGPU-Sim uArch:   25  26
GPGPU-Sim uArch: interconnect node reverse map (icntID to shaderID+MemID)
GPGPU-Sim uArch: Memory nodes start from ID: 15
GPGPU-Sim uArch:    0   1   2   3   4
GPGPU-Sim uArch:    5   6   7   8   9
GPGPU-Sim uArch:   10  11  12  13  14
GPGPU-Sim uArch:   15  16  17  18  19
GPGPU-Sim uArch:   20  21  22  23  24
GPGPU-Sim uArch:   25  26
ee89055bc58e180b7b05d1332bfe7767  /home/scratch/adwait/applications/benchmarks/CUDA/LPS/gpgpu_ptx_sim__LPS
GPGPU-Sim uArch: performance model initialization complete.
GPGPU-Sim PTX: __cudaRegisterFatBinary, fat_cubin_handle = 1, filename=laplace3d.cu
self exe links to: /home/scratch/adwait/applications/benchmarks/CUDA/LPS/gpgpu_ptx_sim__LPS
Running md5sum using "md5sum /home/scratch/adwait/applications/benchmarks/CUDA/LPS/gpgpu_ptx_sim__LPS "
Running cuobjdump using "$CUDA_INSTALL_PATH/bin/cuobjdump -ptx -elf -sass /home/scratch/adwait/applications/benchmarks/CUDA/LPS/gpgpu_ptx_sim__LPS > _cuobjdump_complete_output_nclnIW"
Parsing file _cuobjdump_complete_output_nclnIW
######### cuobjdump parser ########
## Adding new section ELF
Adding arch: sm_20
Adding identifier: laplace3d.cu
## Adding new section PTX
Adding ptx filename: _cuobjdump_1.ptx
Adding arch: sm_20
Adding identifier: laplace3d.cu
Done parsing!!!
GPGPU-Sim PTX: __cudaRegisterFunction _Z13GPU_laplace3diiiiPfS_ : hostFun 0x0x40566f, fat_cubin_handle = 1
GPGPU-Sim PTX: allocating shared region for "__cuda___cuda_local_var_33528_33_non_const_u132" from 0x0 to 0x990 (shared memory space)
GPGPU-Sim PTX: instruction assembly for function '_Z13GPU_laplace3diiiiPfS_'...   done.
GPGPU-Sim PTX: finding reconvergence points for '_Z13GPU_laplace3diiiiPfS_'...
GPGPU-Sim PTX: Finding dominators for '_Z13GPU_laplace3diiiiPfS_'...
GPGPU-Sim PTX: Finding immediate dominators for '_Z13GPU_laplace3diiiiPfS_'...
GPGPU-Sim PTX: Finding postdominators for '_Z13GPU_laplace3diiiiPfS_'...
GPGPU-Sim PTX: Finding immediate postdominators for '_Z13GPU_laplace3diiiiPfS_'...
GPGPU-Sim PTX: pre-decoding instructions for '_Z13GPU_laplace3diiiiPfS_'...
GPGPU-Sim PTX: reconvergence points for _Z13GPU_laplace3diiiiPfS_...
GPGPU-Sim PTX:  1 (potential) branch divergence @  PC=0x060 (_1.ptx:82) @!%p1 bra $Lt_0_14338;
GPGPU-Sim PTX:    immediate post dominator      @  PC=0x230 (_1.ptx:154) add.s32 %r57, %r37, %r12;
GPGPU-Sim PTX:  2 (potential) branch divergence @  PC=0x080 (_1.ptx:86) @%p2 bra $Lt_0_14850;
GPGPU-Sim PTX:    immediate post dominator      @  PC=0x120 (_1.ptx:113) add.s32 %r30, %r16, 1;
GPGPU-Sim PTX:  3 (potential) branch divergence @  PC=0x0a0 (_1.ptx:92) bra.uni $Lt_0_14594;
GPGPU-Sim PTX:    immediate post dominator      @  PC=0x120 (_1.ptx:113) add.s32 %r30, %r16, 1;
GPGPU-Sim PTX:  4 (potential) branch divergence @  PC=0x200 (_1.ptx:145) bra.uni $Lt_0_14082;
GPGPU-Sim PTX:    immediate post dominator      @  PC=0x230 (_1.ptx:154) add.s32 %r57, %r37, %r12;
GPGPU-Sim PTX:  5 (potential) branch divergence @  PC=0x290 (_1.ptx:166) @%p5 bra $Lt_0_15106;
GPGPU-Sim PTX:    immediate post dominator      @  PC=0x308 (_1.ptx:183) mov.u64 %rd1, __cuda___cuda_local_var_33528_33_non_const_u132;
GPGPU-Sim PTX:  6 (potential) branch divergence @  PC=0x320 (_1.ptx:186) @!%p6 bra $Lt_0_15618;
GPGPU-Sim PTX:    immediate post dominator      @  PC=0x380 (_1.ptx:200) ld.param.s32 %r73, [__cudaparm__Z13GPU_laplace3diiiiPfS__NZ];
GPGPU-Sim PTX:  7 (potential) branch divergence @  PC=0x398 (_1.ptx:203) @%p7 bra $Lt_0_16130;
GPGPU-Sim PTX:    immediate post dominator      @  PC=0x6d8 (_1.ptx:335) exit;
GPGPU-Sim PTX:  8 (potential) branch divergence @  PC=0x408 (_1.ptx:219) @%p8 bra $Lt_0_17410;
GPGPU-Sim PTX:    immediate post dominator      @  PC=0x4a0 (_1.ptx:245) @!%p6 bra $Lt_0_18434;
GPGPU-Sim PTX:  9 (potential) branch divergence @  PC=0x468 (_1.ptx:235) @%p9 bra $Lt_0_17410;
GPGPU-Sim PTX:    immediate post dominator      @  PC=0x4a0 (_1.ptx:245) @!%p6 bra $Lt_0_18434;
GPGPU-Sim PTX: 10 (potential) branch divergence @  PC=0x4a0 (_1.ptx:245) @!%p6 bra $Lt_0_18434;
GPGPU-Sim PTX:    immediate post dominator      @  PC=0x548 (_1.ptx:273) bar.sync 0;
GPGPU-Sim PTX: 11 (potential) branch divergence @  PC=0x510 (_1.ptx:262) @%p10 bra $Lt_0_18434;
GPGPU-Sim PTX:    immediate post dominator      @  PC=0x548 (_1.ptx:273) bar.sync 0;
GPGPU-Sim PTX: 12 (potential) branch divergence @  PC=0x560 (_1.ptx:276) @%p11 bra $Lt_0_18946;
GPGPU-Sim PTX:    immediate post dominator      @  PC=0x6b8 (_1.ptx:329) bar.sync 0;
GPGPU-Sim PTX: 13 (potential) branch divergence @  PC=0x578 (_1.ptx:280) @%p12 bra $Lt_0_20738;
GPGPU-Sim PTX:    immediate post dominator      @  PC=0x688 (_1.ptx:321) ld.param.u64 %rd35, [__cudaparm__Z13GPU_laplace3diiiiPfS__d_u2];
GPGPU-Sim PTX: 14 (potential) branch divergence @  PC=0x588 (_1.ptx:282) @%p13 bra $Lt_0_20738;
GPGPU-Sim PTX:    immediate post dominator      @  PC=0x688 (_1.ptx:321) ld.param.u64 %rd35, [__cudaparm__Z13GPU_laplace3diiiiPfS__d_u2];
GPGPU-Sim PTX: 15 (potential) branch divergence @  PC=0x5a0 (_1.ptx:285) @%p14 bra $Lt_0_20738;
GPGPU-Sim PTX:    immediate post dominator      @  PC=0x688 (_1.ptx:321) ld.param.u64 %rd35, [__cudaparm__Z13GPU_laplace3diiiiPfS__d_u2];
GPGPU-Sim PTX: 16 (potential) branch divergence @  PC=0x5b0 (_1.ptx:287) @%p15 bra $Lt_0_20738;
GPGPU-Sim PTX:    immediate post dominator      @  PC=0x688 (_1.ptx:321) ld.param.u64 %rd35, [__cudaparm__Z13GPU_laplace3diiiiPfS__d_u2];
GPGPU-Sim PTX: 17 (potential) branch divergence @  PC=0x5c8 (_1.ptx:290) @%p16 bra $Lt_0_20738;
GPGPU-Sim PTX:    immediate post dominator      @  PC=0x688 (_1.ptx:321) ld.param.u64 %rd35, [__cudaparm__Z13GPU_laplace3diiiiPfS__d_u2];
GPGPU-Sim PTX: 18 (potential) branch divergence @  PC=0x5d8 (_1.ptx:292) @%p17 bra $L_0_12546;
GPGPU-Sim PTX:    immediate post dominator      @  PC=0x688 (_1.ptx:321) ld.param.u64 %rd35, [__cudaparm__Z13GPU_laplace3diiiiPfS__d_u2];
GPGPU-Sim PTX: 19 (potential) branch divergence @  PC=0x600 (_1.ptx:300) bra.uni $L_0_12290;
GPGPU-Sim PTX:    immediate post dominator      @  PC=0x688 (_1.ptx:321) ld.param.u64 %rd35, [__cudaparm__Z13GPU_laplace3diiiiPfS__d_u2];
GPGPU-Sim PTX: 20 (potential) branch divergence @  PC=0x6d0 (_1.ptx:332) @%p18 bra $Lt_0_16642;
GPGPU-Sim PTX:    immediate post dominator      @  PC=0x6d8 (_1.ptx:335) exit;
GPGPU-Sim PTX: ... end of reconvergence points for _Z13GPU_laplace3diiiiPfS_
GPGPU-Sim PTX: ... done pre-decoding instructions for '_Z13GPU_laplace3diiiiPfS_'.
GPGPU-Sim PTX: finished parsing EMBEDDED .ptx file _1.ptx
Adding _cuobjdump_1.ptx with cubin handle 1
GPGPU-Sim PTX: extracting embedded .ptx to temporary file "_ptx_KBGJdp"
Running: cat _ptx_KBGJdp | sed 's/.version 1.5/.version 1.4/' | sed 's/, texmode_independent//' | sed 's/\(\.extern \.const\[1\] .b8 \w\+\)\[\]/\1\[1\]/' | sed 's/const\[.\]/const\[0\]/g' > _ptx2_dCfFJR
GPGPU-Sim PTX: generating ptxinfo using "$CUDA_INSTALL_PATH/bin/ptxas --gpu-name=sm_20 -v _ptx2_dCfFJR --output-file  /dev/null 2> _ptx_KBGJdpinfo"
GPGPU-Sim PTX: Kernel '_Z13GPU_laplace3diiiiPfS_' : regs=17, lmem=0, smem=2448, cmem=64
GPGPU-Sim PTX: removing ptxinfo using "rm -f _ptx_KBGJdp _ptx2_dCfFJR _ptx_KBGJdpinfo"
GPGPU-Sim PTX: loading globals with explicit initializers... 
GPGPU-Sim PTX: finished loading globals (0 bytes total).
GPGPU-Sim PTX: loading constants with explicit initializers...  done.

Grid dimensions: 100 x 100 x 100
GPGPU-Sim PTX: cudaMallocPitch (width = 400)
GPGPU-Sim PTX: cudaMallocPitch (width = 400)
GPGPU-Sim: synchronize waiting for inactive GPU simulation
GPGPU-Sim API: Stream Manager State
GPGPU-Sim: detected inactive GPU simulation thread

Copy u1 to device: 149.537994 (ms) 

 dimGrid  = 4 25 1 
 dimBlock = 32 4 1 
GPGPU-Sim: synchronize waiting for inactive GPU simulation
GPGPU-Sim API: Stream Manager State
GPGPU-Sim: detected inactive GPU simulation thread

GPGPU-Sim PTX: cudaLaunch for 0x0x40566f (mode=performance simulation) on stream 0
GPGPU-Sim PTX: pushing kernel '_Z13GPU_laplace3diiiiPfS_' to stream 0, gridDim= (4,25,1) blockDim = (32,4,1) 
kernel '_Z13GPU_laplace3diiiiPfS_' transfer to GPU hardware scheduler
GPGPU-Sim uArch: Shader 1 bind to kernel 1 '_Z13GPU_laplace3diiiiPfS_'
GPGPU-Sim uArch: CTA/core = 8, limited by: cta_limit
GPGPU-Sim uArch: core:  1, cta: 0 initialized @(1,0)
GPGPU-Sim uArch: Shader 2 bind to kernel 1 '_Z13GPU_laplace3diiiiPfS_'
GPGPU-Sim uArch: core:  2, cta: 0 initialized @(1,0)
GPGPU-Sim uArch: Shader 3 bind to kernel 1 '_Z13GPU_laplace3diiiiPfS_'
GPGPU-Sim uArch: core:  3, cta: 0 initialized @(1,0)
GPGPU-Sim uArch: Shader 4 bind to kernel 1 '_Z13GPU_laplace3diiiiPfS_'
GPGPU-Sim uArch: core:  4, cta: 0 initialized @(1,0)
GPGPU-Sim uArch: Shader 5 bind to kernel 1 '_Z13GPU_laplace3diiiiPfS_'
GPGPU-Sim uArch: core:  5, cta: 0 initialized @(1,0)
GPGPU-Sim uArch: Shader 6 bind to kernel 1 '_Z13GPU_laplace3diiiiPfS_'
GPGPU-Sim uArch: core:  6, cta: 0 initialized @(1,0)
GPGPU-Sim uArch: Shader 7 bind to kernel 1 '_Z13GPU_laplace3diiiiPfS_'
GPGPU-Sim uArch: core:  7, cta: 0 initialized @(1,0)
GPGPU-Sim uArch: Shader 8 bind to kernel 1 '_Z13GPU_laplace3diiiiPfS_'
GPGPU-Sim uArch: core:  8, cta: 0 initialized @(1,0)
GPGPU-Sim uArch: Shader 9 bind to kernel 1 '_Z13GPU_laplace3diiiiPfS_'
GPGPU-Sim uArch: core:  9, cta: 0 initialized @(1,0)
GPGPU-Sim uArch: Shader 10 bind to kernel 1 '_Z13GPU_laplace3diiiiPfS_'
GPGPU-Sim uArch: core: 10, cta: 0 initialized @(1,0)
GPGPU-Sim uArch: Shader 11 bind to kernel 1 '_Z13GPU_laplace3diiiiPfS_'
GPGPU-Sim uArch: core: 11, cta: 0 initialized @(1,0)
GPGPU-Sim uArch: Shader 12 bind to kernel 1 '_Z13GPU_laplace3diiiiPfS_'
GPGPU-Sim uArch: core: 12, cta: 0 initialized @(1,0)
GPGPU-Sim uArch: Shader 13 bind to kernel 1 '_Z13GPU_laplace3diiiiPfS_'
GPGPU-Sim uArch: core: 13, cta: 0 initialized @(1,0)
GPGPU-Sim uArch: Shader 14 bind to kernel 1 '_Z13GPU_laplace3diiiiPfS_'
GPGPU-Sim uArch: core: 14, cta: 0 initialized @(1,0)
GPGPU-Sim uArch: Shader 0 bind to kernel 1 '_Z13GPU_laplace3diiiiPfS_'
GPGPU-Sim uArch: core:  0, cta: 0 initialized @(1,0)
GPGPU-Sim uArch: core:  1, cta: 1 initialized @(2,0)
GPGPU-Sim uArch: core:  2, cta: 1 initialized @(2,0)
GPGPU-Sim uArch: core:  3, cta: 1 initialized @(2,0)
GPGPU-Sim uArch: core:  4, cta: 1 initialized @(2,0)
GPGPU-Sim uArch: core:  5, cta: 1 initialized @(2,0)
GPGPU-Sim uArch: core:  6, cta: 1 initialized @(2,0)
GPGPU-Sim uArch: core:  7, cta: 1 initialized @(2,0)
GPGPU-Sim uArch: core:  8, cta: 1 initialized @(2,0)
GPGPU-Sim uArch: core:  9, cta: 1 initialized @(2,0)
GPGPU-Sim uArch: core: 10, cta: 1 initialized @(2,0)
GPGPU-Sim uArch: core: 11, cta: 1 initialized @(2,0)
GPGPU-Sim uArch: core: 12, cta: 1 initialized @(2,0)
GPGPU-Sim uArch: core: 13, cta: 1 initialized @(2,0)
GPGPU-Sim uArch: core: 14, cta: 1 initialized @(2,0)
GPGPU-Sim uArch: core:  0, cta: 1 initialized @(2,0)
GPGPU-Sim uArch: core:  1, cta: 2 initialized @(3,0)
GPGPU-Sim uArch: core:  2, cta: 2 initialized @(3,0)
GPGPU-Sim uArch: core:  3, cta: 2 initialized @(3,0)
GPGPU-Sim uArch: core:  4, cta: 2 initialized @(3,0)
GPGPU-Sim uArch: core:  5, cta: 2 initialized @(3,0)
GPGPU-Sim uArch: core:  6, cta: 2 initialized @(3,0)
GPGPU-Sim uArch: core:  7, cta: 2 initialized @(3,0)
GPGPU-Sim uArch: core:  8, cta: 2 initialized @(3,0)
GPGPU-Sim uArch: core:  9, cta: 2 initialized @(3,0)
GPGPU-Sim uArch: core: 10, cta: 2 initialized @(3,0)
GPGPU-Sim uArch: core: 11, cta: 2 initialized @(3,0)
GPGPU-Sim uArch: core: 12, cta: 2 initialized @(3,0)
GPGPU-Sim uArch: core: 13, cta: 2 initialized @(3,0)
GPGPU-Sim uArch: core: 14, cta: 2 initialized @(3,0)
GPGPU-Sim uArch: core:  0, cta: 2 initialized @(3,0)
GPGPU-Sim uArch: core:  1, cta: 3 initialized @(4,0)
GPGPU-Sim uArch: core:  2, cta: 3 initialized @(4,0)
GPGPU-Sim uArch: core:  3, cta: 3 initialized @(4,0)
GPGPU-Sim uArch: core:  4, cta: 3 initialized @(4,0)
GPGPU-Sim uArch: core:  5, cta: 3 initialized @(4,0)
GPGPU-Sim uArch: core:  6, cta: 3 initialized @(4,0)
GPGPU-Sim uArch: core:  7, cta: 3 initialized @(4,0)
GPGPU-Sim uArch: core:  8, cta: 3 initialized @(4,0)
GPGPU-Sim uArch: core:  9, cta: 3 initialized @(4,0)
GPGPU-Sim uArch: core: 10, cta: 3 initialized @(4,0)
GPGPU-Sim uArch: core: 11, cta: 3 initialized @(4,0)
GPGPU-Sim uArch: core: 12, cta: 3 initialized @(4,0)
GPGPU-Sim uArch: core: 13, cta: 3 initialized @(4,0)
GPGPU-Sim uArch: core: 14, cta: 3 initialized @(4,0)
GPGPU-Sim uArch: core:  0, cta: 3 initialized @(4,0)
GPGPU-Sim uArch: core:  1, cta: 4 initialized @(5,0)
GPGPU-Sim uArch: core:  2, cta: 4 initialized @(5,0)
GPGPU-Sim uArch: core:  3, cta: 4 initialized @(5,0)
GPGPU-Sim uArch: core:  4, cta: 4 initialized @(5,0)
GPGPU-Sim uArch: core:  5, cta: 4 initialized @(5,0)
GPGPU-Sim uArch: core:  6, cta: 4 initialized @(5,0)
GPGPU-Sim uArch: core:  7, cta: 4 initialized @(5,0)
GPGPU-Sim uArch: core:  8, cta: 4 initialized @(5,0)
GPGPU-Sim uArch: core:  9, cta: 4 initialized @(5,0)
GPGPU-Sim uArch: core: 10, cta: 4 initialized @(5,0)
GPGPU-Sim uArch: core: 11, cta: 4 initialized @(5,0)
GPGPU-Sim uArch: core: 12, cta: 4 initialized @(5,0)
GPGPU-Sim uArch: core: 13, cta: 4 initialized @(5,0)
GPGPU-Sim uArch: core: 14, cta: 4 initialized @(5,0)
GPGPU-Sim uArch: core:  0, cta: 4 initialized @(5,0)
GPGPU-Sim uArch: core:  1, cta: 5 initialized @(6,0)
GPGPU-Sim uArch: core:  2, cta: 5 initialized @(6,0)
GPGPU-Sim uArch: core:  3, cta: 5 initialized @(6,0)
GPGPU-Sim uArch: core:  4, cta: 5 initialized @(6,0)
GPGPU-Sim uArch: core:  5, cta: 5 initialized @(6,0)
GPGPU-Sim uArch: core:  6, cta: 5 initialized @(6,0)
GPGPU-Sim uArch: core:  7, cta: 5 initialized @(6,0)
GPGPU-Sim uArch: core:  8, cta: 5 initialized @(6,0)
GPGPU-Sim uArch: core:  9, cta: 5 initialized @(6,0)
GPGPU-Sim uArch: core: 10, cta: 5 initialized @(6,0)
GPGPU-Sim uArch: core: 11, cta: 5 initialized @(6,0)
GPGPU-Sim uArch: core: 12, cta: 5 initialized @(6,0)
GPGPU-Sim uArch: core: 13, cta: 5 initialized @(6,0)
GPGPU-Sim uArch: core: 14, cta: 5 initialized @(6,0)
GPGPU-Sim uArch: core:  0, cta: 5 initialized @(6,0)
GPGPU-Sim uArch: core:  1, cta: 6 initialized @(7,0)
GPGPU-Sim uArch: core:  2, cta: 6 initialized @(7,0)
GPGPU-Sim uArch: core:  3, cta: 6 initialized @(7,0)
GPGPU-Sim uArch: core:  4, cta: 6 initialized @(7,0)
GPGPU-Sim uArch: core:  5, cta: 6 initialized @(7,0)
GPGPU-Sim uArch: core:  6, cta: 6 initialized @(7,0)
GPGPU-Sim uArch: core:  7, cta: 6 initialized @(7,0)
GPGPU-Sim uArch: core:  8, cta: 6 initialized @(7,0)
GPGPU-Sim uArch: core:  9, cta: 6 initialized @(7,0)
GPGPU-Sim uArch: core: 10, cta: 6 initialized @(7,0)
GPGPU-Sim PTX: 100000 instructions simulated : ctaid=(1,4,0) tid=(31,1,0)
GPGPU-Sim uArch: cycles simulated: 500  inst.: 109668 (ipc=219.3) sim_rate=109668 (inst/sec) elapsed = 0:0:00:01 / Tue Apr 16 16:48:47 2019
GPGPU-Sim PTX: 200000 instructions simulated : ctaid=(2,22,0) tid=(19,2,0)
GPGPU-Sim uArch: cycles simulated: 1000  inst.: 283772 (ipc=283.8) sim_rate=141886 (inst/sec) elapsed = 0:0:00:02 / Tue Apr 16 16:48:48 2019
GPGPU-Sim PTX: 300000 instructions simulated : ctaid=(0,11,0) tid=(31,3,0)
GPGPU-Sim PTX: 400000 instructions simulated : ctaid=(0,23,0) tid=(15,1,0)
GPGPU-Sim uArch: cycles simulated: 1500  inst.: 424724 (ipc=283.1) sim_rate=141574 (inst/sec) elapsed = 0:0:00:03 / Tue Apr 16 16:48:49 2019
GPGPU-Sim PTX: 500000 instructions simulated : ctaid=(0,13,0) tid=(11,2,0)
GPGPU-Sim PTX: 600000 instructions simulated : ctaid=(2,5,0) tid=(27,0,0)
GPGPU-Sim PTX: 700000 instructions simulated : ctaid=(2,12,0) tid=(11,2,0)
GPGPU-Sim uArch: cycles simulated: 2000  inst.: 740950 (ipc=370.5) sim_rate=185237 (inst/sec) elapsed = 0:0:00:04 / Tue Apr 16 16:48:50 2019
GPGPU-Sim PTX: 800000 instructions simulated : ctaid=(1,0,0) tid=(29,3,0)
GPGPU-Sim PTX: 900000 instructions simulated : ctaid=(1,0,0) tid=(3,3,0)
GPGPU-Sim PTX: 1000000 instructions simulated : ctaid=(0,8,0) tid=(30,3,0)
GPGPU-Sim uArch: cycles simulated: 2500  inst.: 955700 (ipc=382.3) sim_rate=191140 (inst/sec) elapsed = 0:0:00:05 / Tue Apr 16 16:48:51 2019
GPGPU-Sim PTX: 1100000 instructions simulated : ctaid=(3,2,0) tid=(19,1,0)
GPGPU-Sim PTX: 1200000 instructions simulated : ctaid=(3,17,0) tid=(7,2,0)
GPGPU-Sim uArch: cycles simulated: 3000  inst.: 1171345 (ipc=390.4) sim_rate=167335 (inst/sec) elapsed = 0:0:00:07 / Tue Apr 16 16:48:53 2019
GPGPU-Sim PTX: 1300000 instructions simulated : ctaid=(2,12,0) tid=(3,0,0)
GPGPU-Sim PTX: 1400000 instructions simulated : ctaid=(0,20,0) tid=(30,0,0)
GPGPU-Sim uArch: cycles simulated: 4000  inst.: 1394217 (ipc=348.6) sim_rate=174277 (inst/sec) elapsed = 0:0:00:08 / Tue Apr 16 16:48:54 2019
GPGPU-Sim PTX: 1500000 instructions simulated : ctaid=(2,13,0) tid=(10,1,0)
GPGPU-Sim PTX: 1600000 instructions simulated : ctaid=(0,22,0) tid=(31,1,0)
GPGPU-Sim uArch: cycles simulated: 4500  inst.: 1525074 (ipc=338.9) sim_rate=169452 (inst/sec) elapsed = 0:0:00:09 / Tue Apr 16 16:48:55 2019
GPGPU-Sim PTX: 1700000 instructions simulated : ctaid=(0,4,0) tid=(7,0,0)
GPGPU-Sim PTX: 1800000 instructions simulated : ctaid=(2,9,0) tid=(16,2,0)
GPGPU-Sim PTX: 1900000 instructions simulated : ctaid=(0,1,0) tid=(13,3,0)
GPGPU-Sim uArch: cycles simulated: 5000  inst.: 1772987 (ipc=354.6) sim_rate=177298 (inst/sec) elapsed = 0:0:00:10 / Tue Apr 16 16:48:56 2019
GPGPU-Sim uArch: cycles simulated: 5500  inst.: 1801873 (ipc=327.6) sim_rate=163806 (inst/sec) elapsed = 0:0:00:11 / Tue Apr 16 16:48:57 2019
GPGPU-Sim PTX: 2000000 instructions simulated : ctaid=(1,5,0) tid=(20,0,0)
GPGPU-Sim PTX: 2100000 instructions simulated : ctaid=(2,2,0) tid=(30,0,0)
GPGPU-Sim uArch: cycles simulated: 6500  inst.: 2003317 (ipc=308.2) sim_rate=166943 (inst/sec) elapsed = 0:0:00:12 / Tue Apr 16 16:48:58 2019
GPGPU-Sim PTX: 2200000 instructions simulated : ctaid=(1,6,0) tid=(21,1,0)
GPGPU-Sim PTX: 2300000 instructions simulated : ctaid=(0,8,0) tid=(4,2,0)
GPGPU-Sim PTX: 2400000 instructions simulated : ctaid=(1,12,0) tid=(10,1,0)
GPGPU-Sim uArch: cycles simulated: 7000  inst.: 2279784 (ipc=325.7) sim_rate=175368 (inst/sec) elapsed = 0:0:00:13 / Tue Apr 16 16:48:59 2019
GPGPU-Sim PTX: 2500000 instructions simulated : ctaid=(1,4,0) tid=(15,3,0)
GPGPU-Sim PTX: 2600000 instructions simulated : ctaid=(2,21,0) tid=(31,2,0)
GPGPU-Sim PTX: 2700000 instructions simulated : ctaid=(3,15,0) tid=(0,2,0)
GPGPU-Sim uArch: cycles simulated: 7500  inst.: 2487553 (ipc=331.7) sim_rate=177682 (inst/sec) elapsed = 0:0:00:14 / Tue Apr 16 16:49:00 2019
GPGPU-Sim PTX: 2800000 instructions simulated : ctaid=(0,9,0) tid=(30,0,0)
GPGPU-Sim uArch: cycles simulated: 8000  inst.: 2640098 (ipc=330.0) sim_rate=176006 (inst/sec) elapsed = 0:0:00:15 / Tue Apr 16 16:49:01 2019
GPGPU-Sim PTX: 2900000 instructions simulated : ctaid=(1,6,0) tid=(6,3,0)
GPGPU-Sim PTX: 3000000 instructions simulated : ctaid=(2,21,0) tid=(7,1,0)
GPGPU-Sim PTX: 3100000 instructions simulated : ctaid=(2,4,0) tid=(19,1,0)
GPGPU-Sim uArch: cycles simulated: 8500  inst.: 2880414 (ipc=338.9) sim_rate=169436 (inst/sec) elapsed = 0:0:00:17 / Tue Apr 16 16:49:03 2019
GPGPU-Sim PTX: 3200000 instructions simulated : ctaid=(2,9,0) tid=(17,0,0)
GPGPU-Sim PTX: 3300000 instructions simulated : ctaid=(1,21,0) tid=(18,0,0)
GPGPU-Sim PTX: 3400000 instructions simulated : ctaid=(2,10,0) tid=(13,3,0)
GPGPU-Sim uArch: cycles simulated: 9000  inst.: 3133710 (ipc=348.2) sim_rate=174095 (inst/sec) elapsed = 0:0:00:18 / Tue Apr 16 16:49:04 2019
GPGPU-Sim PTX: 3500000 instructions simulated : ctaid=(0,3,0) tid=(26,3,0)
GPGPU-Sim PTX: 3600000 instructions simulated : ctaid=(1,12,0) tid=(30,0,0)
GPGPU-Sim uArch: cycles simulated: 9500  inst.: 3341870 (ipc=351.8) sim_rate=175887 (inst/sec) elapsed = 0:0:00:19 / Tue Apr 16 16:49:05 2019
GPGPU-Sim PTX: 3700000 instructions simulated : ctaid=(2,11,0) tid=(15,1,0)
GPGPU-Sim PTX: 3800000 instructions simulated : ctaid=(3,15,0) tid=(2,1,0)
GPGPU-Sim PTX: 3900000 instructions simulated : ctaid=(1,4,0) tid=(0,0,0)
GPGPU-Sim uArch: cycles simulated: 10000  inst.: 3589518 (ipc=359.0) sim_rate=179475 (inst/sec) elapsed = 0:0:00:20 / Tue Apr 16 16:49:06 2019
GPGPU-Sim PTX: 4000000 instructions simulated : ctaid=(2,7,0) tid=(9,0,0)
GPGPU-Sim PTX: 4100000 instructions simulated : ctaid=(2,7,0) tid=(7,1,0)
GPGPU-Sim uArch: cycles simulated: 10500  inst.: 3801738 (ipc=362.1) sim_rate=181035 (inst/sec) elapsed = 0:0:00:21 / Tue Apr 16 16:49:07 2019
GPGPU-Sim PTX: 4200000 instructions simulated : ctaid=(1,2,0) tid=(17,1,0)
GPGPU-Sim PTX: 4300000 instructions simulated : ctaid=(2,0,0) tid=(11,2,0)
GPGPU-Sim PTX: 4400000 instructions simulated : ctaid=(2,10,0) tid=(6,0,0)
GPGPU-Sim uArch: cycles simulated: 11000  inst.: 3998883 (ipc=363.5) sim_rate=181767 (inst/sec) elapsed = 0:0:00:22 / Tue Apr 16 16:49:08 2019
GPGPU-Sim PTX: 4500000 instructions simulated : ctaid=(2,1,0) tid=(30,3,0)
GPGPU-Sim PTX: 4600000 instructions simulated : ctaid=(0,4,0) tid=(22,2,0)
GPGPU-Sim PTX: 4700000 instructions simulated : ctaid=(1,21,0) tid=(10,2,0)
GPGPU-Sim uArch: cycles simulated: 11500  inst.: 4261255 (ipc=370.5) sim_rate=185271 (inst/sec) elapsed = 0:0:00:23 / Tue Apr 16 16:49:09 2019
GPGPU-Sim PTX: 4800000 instructions simulated : ctaid=(2,1,0) tid=(4,2,0)
GPGPU-Sim PTX: 4900000 instructions simulated : ctaid=(2,16,0) tid=(21,1,0)
GPGPU-Sim uArch: cycles simulated: 12000  inst.: 4506627 (ipc=375.6) sim_rate=180265 (inst/sec) elapsed = 0:0:00:25 / Tue Apr 16 16:49:11 2019
GPGPU-Sim PTX: 5000000 instructions simulated : ctaid=(0,2,0) tid=(29,0,0)
GPGPU-Sim PTX: 5100000 instructions simulated : ctaid=(1,15,0) tid=(6,2,0)
GPGPU-Sim PTX: 5200000 instructions simulated : ctaid=(2,3,0) tid=(3,2,0)
GPGPU-Sim uArch: cycles simulated: 12500  inst.: 4699172 (ipc=375.9) sim_rate=180737 (inst/sec) elapsed = 0:0:00:26 / Tue Apr 16 16:49:12 2019
GPGPU-Sim PTX: 5300000 instructions simulated : ctaid=(2,9,0) tid=(27,2,0)
GPGPU-Sim PTX: 5400000 instructions simulated : ctaid=(2,7,0) tid=(3,0,0)
GPGPU-Sim PTX: 5500000 instructions simulated : ctaid=(2,19,0) tid=(9,1,0)
GPGPU-Sim PTX: 5600000 instructions simulated : ctaid=(2,0,0) tid=(26,1,0)
GPGPU-Sim PTX: 5700000 instructions simulated : ctaid=(2,20,0) tid=(4,0,0)
GPGPU-Sim uArch: cycles simulated: 13500  inst.: 5205247 (ipc=385.6) sim_rate=192786 (inst/sec) elapsed = 0:0:00:27 / Tue Apr 16 16:49:13 2019
GPGPU-Sim PTX: 5800000 instructions simulated : ctaid=(1,0,0) tid=(19,2,0)
GPGPU-Sim PTX: 5900000 instructions simulated : ctaid=(2,24,0) tid=(19,1,0)
GPGPU-Sim PTX: 6000000 instructions simulated : ctaid=(1,0,0) tid=(3,3,0)
GPGPU-Sim uArch: cycles simulated: 14000  inst.: 5430313 (ipc=387.9) sim_rate=193939 (inst/sec) elapsed = 0:0:00:28 / Tue Apr 16 16:49:14 2019
GPGPU-Sim PTX: 6100000 instructions simulated : ctaid=(0,16,0) tid=(26,1,0)
GPGPU-Sim PTX: 6200000 instructions simulated : ctaid=(0,14,0) tid=(11,3,0)
GPGPU-Sim uArch: cycles simulated: 14500  inst.: 5664419 (ipc=390.6) sim_rate=195324 (inst/sec) elapsed = 0:0:00:29 / Tue Apr 16 16:49:15 2019
GPGPU-Sim PTX: 6300000 instructions simulated : ctaid=(2,14,0) tid=(11,2,0)
GPGPU-Sim PTX: 6400000 instructions simulated : ctaid=(2,17,0) tid=(2,1,0)
GPGPU-Sim PTX: 6500000 instructions simulated : ctaid=(2,18,0) tid=(22,1,0)
GPGPU-Sim uArch: cycles simulated: 15000  inst.: 5904077 (ipc=393.6) sim_rate=196802 (inst/sec) elapsed = 0:0:00:30 / Tue Apr 16 16:49:16 2019
GPGPU-Sim PTX: 6600000 instructions simulated : ctaid=(1,15,0) tid=(19,1,0)
GPGPU-Sim PTX: 6700000 instructions simulated : ctaid=(0,20,0) tid=(27,1,0)
GPGPU-Sim PTX: 6800000 instructions simulated : ctaid=(1,1,0) tid=(22,0,0)
GPGPU-Sim uArch: cycles simulated: 15500  inst.: 6142290 (ipc=396.3) sim_rate=198138 (inst/sec) elapsed = 0:0:00:31 / Tue Apr 16 16:49:17 2019
GPGPU-Sim PTX: 6900000 instructions simulated : ctaid=(1,17,0) tid=(8,3,0)
GPGPU-Sim PTX: 7000000 instructions simulated : ctaid=(2,1,0) tid=(20,0,0)
GPGPU-Sim uArch: cycles simulated: 16000  inst.: 6374968 (ipc=398.4) sim_rate=199217 (inst/sec) elapsed = 0:0:00:32 / Tue Apr 16 16:49:18 2019
GPGPU-Sim PTX: 7100000 instructions simulated : ctaid=(1,3,0) tid=(10,2,0)
GPGPU-Sim PTX: 7200000 instructions simulated : ctaid=(1,2,0) tid=(25,0,0)
GPGPU-Sim PTX: 7300000 instructions simulated : ctaid=(1,7,0) tid=(19,0,0)
GPGPU-Sim uArch: cycles simulated: 16500  inst.: 6596945 (ipc=399.8) sim_rate=199907 (inst/sec) elapsed = 0:0:00:33 / Tue Apr 16 16:49:19 2019
GPGPU-Sim PTX: 7400000 instructions simulated : ctaid=(2,2,0) tid=(25,2,0)
GPGPU-Sim PTX: 7500000 instructions simulated : ctaid=(0,12,0) tid=(14,3,0)
GPGPU-Sim PTX: 7600000 instructions simulated : ctaid=(0,0,0) tid=(7,0,0)
GPGPU-Sim uArch: cycles simulated: 17000  inst.: 6849898 (ipc=402.9) sim_rate=201467 (inst/sec) elapsed = 0:0:00:34 / Tue Apr 16 16:49:20 2019
GPGPU-Sim PTX: 7700000 instructions simulated : ctaid=(3,7,0) tid=(26,0,0)
GPGPU-Sim PTX: 7800000 instructions simulated : ctaid=(1,19,0) tid=(29,0,0)
GPGPU-Sim PTX: 7900000 instructions simulated : ctaid=(0,9,0) tid=(13,1,0)
GPGPU-Sim uArch: cycles simulated: 17500  inst.: 7094990 (ipc=405.4) sim_rate=202714 (inst/sec) elapsed = 0:0:00:35 / Tue Apr 16 16:49:21 2019
GPGPU-Sim PTX: 8000000 instructions simulated : ctaid=(1,13,0) tid=(13,3,0)
GPGPU-Sim PTX: 8100000 instructions simulated : ctaid=(2,22,0) tid=(21,1,0)
GPGPU-Sim PTX: 8200000 instructions simulated : ctaid=(0,13,0) tid=(23,2,0)
GPGPU-Sim PTX: 8300000 instructions simulated : ctaid=(0,5,0) tid=(16,2,0)
GPGPU-Sim PTX: 8400000 instructions simulated : ctaid=(0,5,0) tid=(1,0,0)
GPGPU-Sim uArch: cycles simulated: 18500  inst.: 7542701 (ipc=407.7) sim_rate=209519 (inst/sec) elapsed = 0:0:00:36 / Tue Apr 16 16:49:22 2019
GPGPU-Sim PTX: 8500000 instructions simulated : ctaid=(1,7,0) tid=(31,0,0)
GPGPU-Sim PTX: 8600000 instructions simulated : ctaid=(1,3,0) tid=(19,3,0)
GPGPU-Sim PTX: 8700000 instructions simulated : ctaid=(2,12,0) tid=(4,0,0)
GPGPU-Sim uArch: cycles simulated: 19000  inst.: 7826950 (ipc=411.9) sim_rate=205972 (inst/sec) elapsed = 0:0:00:38 / Tue Apr 16 16:49:24 2019
GPGPU-Sim PTX: 8800000 instructions simulated : ctaid=(0,2,0) tid=(13,1,0)
GPGPU-Sim PTX: 8900000 instructions simulated : ctaid=(1,18,0) tid=(6,0,0)
GPGPU-Sim uArch: cycles simulated: 19500  inst.: 8040569 (ipc=412.3) sim_rate=206168 (inst/sec) elapsed = 0:0:00:39 / Tue Apr 16 16:49:25 2019
GPGPU-Sim PTX: 9000000 instructions simulated : ctaid=(2,3,0) tid=(23,1,0)
GPGPU-Sim PTX: 9100000 instructions simulated : ctaid=(0,5,0) tid=(27,1,0)
GPGPU-Sim PTX: 9200000 instructions simulated : ctaid=(2,19,0) tid=(14,0,0)
GPGPU-Sim PTX: 9300000 instructions simulated : ctaid=(2,6,0) tid=(7,2,0)
GPGPU-Sim PTX: 9400000 instructions simulated : ctaid=(3,14,0) tid=(6,1,0)
GPGPU-Sim PTX: 9500000 instructions simulated : ctaid=(0,2,0) tid=(4,1,0)
GPGPU-Sim uArch: cycles simulated: 20500  inst.: 8539505 (ipc=416.6) sim_rate=213487 (inst/sec) elapsed = 0:0:00:40 / Tue Apr 16 16:49:26 2019
GPGPU-Sim PTX: 9600000 instructions simulated : ctaid=(1,24,0) tid=(2,2,0)
GPGPU-Sim PTX: 9700000 instructions simulated : ctaid=(1,16,0) tid=(24,0,0)
GPGPU-Sim uArch: cycles simulated: 21000  inst.: 8747857 (ipc=416.6) sim_rate=213362 (inst/sec) elapsed = 0:0:00:41 / Tue Apr 16 16:49:27 2019
GPGPU-Sim PTX: 9800000 instructions simulated : ctaid=(0,7,0) tid=(5,0,0)
GPGPU-Sim PTX: 9900000 instructions simulated : ctaid=(1,17,0) tid=(14,2,0)
GPGPU-Sim PTX: 10000000 instructions simulated : ctaid=(2,3,0) tid=(5,0,0)
GPGPU-Sim PTX: 10100000 instructions simulated : ctaid=(1,20,0) tid=(5,0,0)
GPGPU-Sim PTX: 10200000 instructions simulated : ctaid=(0,14,0) tid=(28,1,0)
GPGPU-Sim PTX: 10300000 instructions simulated : ctaid=(0,5,0) tid=(29,2,0)
GPGPU-Sim uArch: cycles simulated: 22000  inst.: 9233576 (ipc=419.7) sim_rate=219847 (inst/sec) elapsed = 0:0:00:42 / Tue Apr 16 16:49:28 2019
GPGPU-Sim PTX: 10400000 instructions simulated : ctaid=(1,24,0) tid=(16,0,0)
GPGPU-Sim PTX: 10500000 instructions simulated : ctaid=(3,1,0) tid=(21,3,0)
GPGPU-Sim PTX: 10600000 instructions simulated : ctaid=(2,6,0) tid=(4,3,0)
GPGPU-Sim PTX: 10700000 instructions simulated : ctaid=(1,18,0) tid=(13,2,0)
GPGPU-Sim PTX: 10800000 instructions simulated : ctaid=(2,4,0) tid=(17,3,0)
GPGPU-Sim uArch: cycles simulated: 23000  inst.: 9673529 (ipc=420.6) sim_rate=224965 (inst/sec) elapsed = 0:0:00:43 / Tue Apr 16 16:49:29 2019
GPGPU-Sim PTX: 10900000 instructions simulated : ctaid=(0,11,0) tid=(1,1,0)
GPGPU-Sim PTX: 11000000 instructions simulated : ctaid=(3,4,0) tid=(2,0,0)
GPGPU-Sim uArch: cycles simulated: 23500  inst.: 9870013 (ipc=420.0) sim_rate=224318 (inst/sec) elapsed = 0:0:00:44 / Tue Apr 16 16:49:30 2019
GPGPU-Sim PTX: 11100000 instructions simulated : ctaid=(1,9,0) tid=(1,0,0)
GPGPU-Sim PTX: 11200000 instructions simulated : ctaid=(2,10,0) tid=(22,0,0)
GPGPU-Sim PTX: 11300000 instructions simulated : ctaid=(1,2,0) tid=(11,2,0)
GPGPU-Sim PTX: 11400000 instructions simulated : ctaid=(0,23,0) tid=(4,3,0)
GPGPU-Sim PTX: 11500000 instructions simulated : ctaid=(0,19,0) tid=(21,1,0)
GPGPU-Sim uArch: cycles simulated: 24500  inst.: 10309713 (ipc=420.8) sim_rate=229104 (inst/sec) elapsed = 0:0:00:45 / Tue Apr 16 16:49:31 2019
GPGPU-Sim PTX: 11600000 instructions simulated : ctaid=(0,4,0) tid=(29,1,0)
GPGPU-Sim PTX: 11700000 instructions simulated : ctaid=(2,7,0) tid=(31,2,0)
GPGPU-Sim PTX: 11800000 instructions simulated : ctaid=(1,10,0) tid=(9,0,0)
GPGPU-Sim uArch: cycles simulated: 25000  inst.: 10567408 (ipc=422.7) sim_rate=229726 (inst/sec) elapsed = 0:0:00:46 / Tue Apr 16 16:49:32 2019
GPGPU-Sim PTX: 11900000 instructions simulated : ctaid=(1,7,0) tid=(5,0,0)
GPGPU-Sim PTX: 12000000 instructions simulated : ctaid=(1,19,0) tid=(23,3,0)
GPGPU-Sim PTX: 12100000 instructions simulated : ctaid=(1,16,0) tid=(30,0,0)
GPGPU-Sim PTX: 12200000 instructions simulated : ctaid=(1,15,0) tid=(12,0,0)
GPGPU-Sim uArch: cycles simulated: 26000  inst.: 11003905 (ipc=423.2) sim_rate=234125 (inst/sec) elapsed = 0:0:00:47 / Tue Apr 16 16:49:33 2019
GPGPU-Sim PTX: 12300000 instructions simulated : ctaid=(0,1,0) tid=(13,3,0)
GPGPU-Sim PTX: 12400000 instructions simulated : ctaid=(0,8,0) tid=(10,0,0)
GPGPU-Sim PTX: 12500000 instructions simulated : ctaid=(2,12,0) tid=(24,3,0)
GPGPU-Sim PTX: 12600000 instructions simulated : ctaid=(1,16,0) tid=(28,0,0)
GPGPU-Sim PTX: 12700000 instructions simulated : ctaid=(3,9,0) tid=(1,0,0)
GPGPU-Sim PTX: 12800000 instructions simulated : ctaid=(0,6,0) tid=(3,2,0)
GPGPU-Sim uArch: cycles simulated: 27000  inst.: 11485231 (ipc=425.4) sim_rate=239275 (inst/sec) elapsed = 0:0:00:48 / Tue Apr 16 16:49:34 2019
GPGPU-Sim PTX: 12900000 instructions simulated : ctaid=(2,11,0) tid=(15,3,0)
GPGPU-Sim PTX: 13000000 instructions simulated : ctaid=(1,4,0) tid=(31,3,0)
GPGPU-Sim uArch: cycles simulated: 27500  inst.: 11696563 (ipc=425.3) sim_rate=238705 (inst/sec) elapsed = 0:0:00:49 / Tue Apr 16 16:49:35 2019
GPGPU-Sim PTX: 13100000 instructions simulated : ctaid=(2,11,0) tid=(7,2,0)
GPGPU-Sim PTX: 13200000 instructions simulated : ctaid=(1,9,0) tid=(0,3,0)
GPGPU-Sim uArch: cycles simulated: 28000  inst.: 11879136 (ipc=424.3) sim_rate=237582 (inst/sec) elapsed = 0:0:00:50 / Tue Apr 16 16:49:36 2019
GPGPU-Sim PTX: 13300000 instructions simulated : ctaid=(1,5,0) tid=(20,1,0)
GPGPU-Sim PTX: 13400000 instructions simulated : ctaid=(1,2,0) tid=(25,1,0)
GPGPU-Sim PTX: 13500000 instructions simulated : ctaid=(1,1,0) tid=(23,2,0)
GPGPU-Sim uArch: cycles simulated: 28500  inst.: 12140439 (ipc=426.0) sim_rate=238047 (inst/sec) elapsed = 0:0:00:51 / Tue Apr 16 16:49:37 2019
GPGPU-Sim PTX: 13600000 instructions simulated : ctaid=(1,12,0) tid=(29,0,0)
GPGPU-Sim PTX: 13700000 instructions simulated : ctaid=(2,13,0) tid=(14,1,0)
GPGPU-Sim PTX: 13800000 instructions simulated : ctaid=(1,11,0) tid=(13,0,0)
GPGPU-Sim uArch: cycles simulated: 29000  inst.: 12355985 (ipc=426.1) sim_rate=237615 (inst/sec) elapsed = 0:0:00:52 / Tue Apr 16 16:49:38 2019
GPGPU-Sim PTX: 13900000 instructions simulated : ctaid=(2,7,0) tid=(24,2,0)
GPGPU-Sim PTX: 14000000 instructions simulated : ctaid=(2,17,0) tid=(30,1,0)
GPGPU-Sim uArch: cycles simulated: 29500  inst.: 12598513 (ipc=427.1) sim_rate=237707 (inst/sec) elapsed = 0:0:00:53 / Tue Apr 16 16:49:39 2019
GPGPU-Sim PTX: 14100000 instructions simulated : ctaid=(0,13,0) tid=(11,1,0)
GPGPU-Sim PTX: 14200000 instructions simulated : ctaid=(0,2,0) tid=(14,3,0)
GPGPU-Sim PTX: 14300000 instructions simulated : ctaid=(2,24,0) tid=(6,2,0)
GPGPU-Sim uArch: cycles simulated: 30000  inst.: 12831775 (ipc=427.7) sim_rate=237625 (inst/sec) elapsed = 0:0:00:54 / Tue Apr 16 16:49:40 2019
GPGPU-Sim PTX: 14400000 instructions simulated : ctaid=(1,12,0) tid=(4,2,0)
GPGPU-Sim PTX: 14500000 instructions simulated : ctaid=(2,2,0) tid=(13,2,0)
GPGPU-Sim PTX: 14600000 instructions simulated : ctaid=(0,23,0) tid=(26,1,0)
GPGPU-Sim uArch: cycles simulated: 30500  inst.: 13057876 (ipc=428.1) sim_rate=237415 (inst/sec) elapsed = 0:0:00:55 / Tue Apr 16 16:49:41 2019
GPGPU-Sim PTX: 14700000 instructions simulated : ctaid=(2,7,0) tid=(4,3,0)
GPGPU-Sim PTX: 14800000 instructions simulated : ctaid=(1,3,0) tid=(27,1,0)
GPGPU-Sim PTX: 14900000 instructions simulated : ctaid=(0,21,0) tid=(29,2,0)
GPGPU-Sim uArch: cycles simulated: 31000  inst.: 13319468 (ipc=429.7) sim_rate=237847 (inst/sec) elapsed = 0:0:00:56 / Tue Apr 16 16:49:42 2019
GPGPU-Sim PTX: 15000000 instructions simulated : ctaid=(0,8,0) tid=(25,2,0)
GPGPU-Sim PTX: 15100000 instructions simulated : ctaid=(0,7,0) tid=(29,3,0)
GPGPU-Sim PTX: 15200000 instructions simulated : ctaid=(3,18,0) tid=(11,3,0)
GPGPU-Sim PTX: 15300000 instructions simulated : ctaid=(2,21,0) tid=(6,2,0)
GPGPU-Sim PTX: 15400000 instructions simulated : ctaid=(2,3,0) tid=(30,1,0)
GPGPU-Sim uArch: cycles simulated: 32000  inst.: 13767586 (ipc=430.2) sim_rate=241536 (inst/sec) elapsed = 0:0:00:57 / Tue Apr 16 16:49:43 2019
GPGPU-Sim PTX: 15500000 instructions simulated : ctaid=(1,7,0) tid=(21,1,0)
GPGPU-Sim PTX: 15600000 instructions simulated : ctaid=(2,21,0) tid=(6,3,0)
GPGPU-Sim uArch: cycles simulated: 32500  inst.: 14012575 (ipc=431.2) sim_rate=237501 (inst/sec) elapsed = 0:0:00:59 / Tue Apr 16 16:49:45 2019
GPGPU-Sim PTX: 15700000 instructions simulated : ctaid=(0,14,0) tid=(5,2,0)
GPGPU-Sim PTX: 15800000 instructions simulated : ctaid=(1,9,0) tid=(28,3,0)
GPGPU-Sim PTX: 15900000 instructions simulated : ctaid=(1,5,0) tid=(4,3,0)
GPGPU-Sim PTX: 16000000 instructions simulated : ctaid=(1,6,0) tid=(22,1,0)
GPGPU-Sim PTX: 16100000 instructions simulated : ctaid=(1,21,0) tid=(23,0,0)
GPGPU-Sim uArch: cycles simulated: 33500  inst.: 14465532 (ipc=431.8) sim_rate=237139 (inst/sec) elapsed = 0:0:01:01 / Tue Apr 16 16:49:47 2019
GPGPU-Sim PTX: 16200000 instructions simulated : ctaid=(0,14,0) tid=(28,2,0)
GPGPU-Sim PTX: 16300000 instructions simulated : ctaid=(3,6,0) tid=(7,2,0)
GPGPU-Sim PTX: 16400000 instructions simulated : ctaid=(0,0,0) tid=(13,3,0)
GPGPU-Sim uArch: cycles simulated: 34000  inst.: 14700950 (ipc=432.4) sim_rate=237112 (inst/sec) elapsed = 0:0:01:02 / Tue Apr 16 16:49:48 2019
GPGPU-Sim PTX: 16500000 instructions simulated : ctaid=(1,0,0) tid=(10,2,0)
GPGPU-Sim PTX: 16600000 instructions simulated : ctaid=(0,8,0) tid=(24,3,0)
GPGPU-Sim PTX: 16700000 instructions simulated : ctaid=(3,12,0) tid=(21,0,0)
GPGPU-Sim uArch: cycles simulated: 34500  inst.: 14925427 (ipc=432.6) sim_rate=236911 (inst/sec) elapsed = 0:0:01:03 / Tue Apr 16 16:49:49 2019
GPGPU-Sim PTX: 16800000 instructions simulated : ctaid=(2,13,0) tid=(13,1,0)
GPGPU-Sim PTX: 16900000 instructions simulated : ctaid=(1,5,0) tid=(11,1,0)
GPGPU-Sim uArch: cycles simulated: 35000  inst.: 15169275 (ipc=433.4) sim_rate=237019 (inst/sec) elapsed = 0:0:01:04 / Tue Apr 16 16:49:50 2019
GPGPU-Sim PTX: 17000000 instructions simulated : ctaid=(0,11,0) tid=(25,2,0)
GPGPU-Sim PTX: 17100000 instructions simulated : ctaid=(2,8,0) tid=(19,1,0)
GPGPU-Sim PTX: 17200000 instructions simulated : ctaid=(1,9,0) tid=(12,1,0)
GPGPU-Sim uArch: cycles simulated: 35500  inst.: 15396440 (ipc=433.7) sim_rate=236868 (inst/sec) elapsed = 0:0:01:05 / Tue Apr 16 16:49:51 2019
GPGPU-Sim PTX: 17300000 instructions simulated : ctaid=(1,13,0) tid=(22,0,0)
GPGPU-Sim PTX: 17400000 instructions simulated : ctaid=(2,2,0) tid=(25,1,0)
GPGPU-Sim uArch: cycles simulated: 36000  inst.: 15605405 (ipc=433.5) sim_rate=236445 (inst/sec) elapsed = 0:0:01:06 / Tue Apr 16 16:49:52 2019
GPGPU-Sim PTX: 17500000 instructions simulated : ctaid=(0,13,0) tid=(20,1,0)
GPGPU-Sim PTX: 17600000 instructions simulated : ctaid=(1,1,0) tid=(14,0,0)
GPGPU-Sim PTX: 17700000 instructions simulated : ctaid=(1,15,0) tid=(25,2,0)
GPGPU-Sim uArch: cycles simulated: 36500  inst.: 15846280 (ipc=434.1) sim_rate=236511 (inst/sec) elapsed = 0:0:01:07 / Tue Apr 16 16:49:53 2019
GPGPU-Sim PTX: 17800000 instructions simulated : ctaid=(0,12,0) tid=(8,0,0)
GPGPU-Sim PTX: 17900000 instructions simulated : ctaid=(2,13,0) tid=(9,0,0)
GPGPU-Sim PTX: 18000000 instructions simulated : ctaid=(0,20,0) tid=(31,3,0)
GPGPU-Sim uArch: cycles simulated: 37000  inst.: 16095280 (ipc=435.0) sim_rate=236695 (inst/sec) elapsed = 0:0:01:08 / Tue Apr 16 16:49:54 2019
GPGPU-Sim PTX: 18100000 instructions simulated : ctaid=(1,3,0) tid=(24,1,0)
GPGPU-Sim PTX: 18200000 instructions simulated : ctaid=(1,10,0) tid=(20,3,0)
GPGPU-Sim uArch: cycles simulated: 37500  inst.: 16308065 (ipc=434.9) sim_rate=236348 (inst/sec) elapsed = 0:0:01:09 / Tue Apr 16 16:49:55 2019
GPGPU-Sim PTX: 18300000 instructions simulated : ctaid=(2,13,0) tid=(9,0,0)
GPGPU-Sim PTX: 18400000 instructions simulated : ctaid=(1,8,0) tid=(0,2,0)
GPGPU-Sim PTX: 18500000 instructions simulated : ctaid=(1,15,0) tid=(18,2,0)
GPGPU-Sim uArch: cycles simulated: 38000  inst.: 16535246 (ipc=435.1) sim_rate=236217 (inst/sec) elapsed = 0:0:01:10 / Tue Apr 16 16:49:56 2019
GPGPU-Sim PTX: 18600000 instructions simulated : ctaid=(1,19,0) tid=(22,3,0)
GPGPU-Sim PTX: 18700000 instructions simulated : ctaid=(0,21,0) tid=(22,1,0)
GPGPU-Sim uArch: cycles simulated: 38500  inst.: 16748981 (ipc=435.0) sim_rate=235901 (inst/sec) elapsed = 0:0:01:11 / Tue Apr 16 16:49:57 2019
GPGPU-Sim PTX: 18800000 instructions simulated : ctaid=(3,18,0) tid=(12,3,0)
GPGPU-Sim PTX: 18900000 instructions simulated : ctaid=(2,4,0) tid=(8,2,0)
GPGPU-Sim PTX: 19000000 instructions simulated : ctaid=(0,0,0) tid=(18,1,0)
GPGPU-Sim uArch: cycles simulated: 39000  inst.: 16979270 (ipc=435.4) sim_rate=235823 (inst/sec) elapsed = 0:0:01:12 / Tue Apr 16 16:49:58 2019
GPGPU-Sim PTX: 19100000 instructions simulated : ctaid=(1,18,0) tid=(7,0,0)
GPGPU-Sim PTX: 19200000 instructions simulated : ctaid=(1,24,0) tid=(30,3,0)
GPGPU-Sim PTX: 19300000 instructions simulated : ctaid=(0,7,0) tid=(10,3,0)
GPGPU-Sim uArch: cycles simulated: 39500  inst.: 17229042 (ipc=436.2) sim_rate=236014 (inst/sec) elapsed = 0:0:01:13 / Tue Apr 16 16:49:59 2019
GPGPU-Sim PTX: 19400000 instructions simulated : ctaid=(0,13,0) tid=(1,0,0)
GPGPU-Sim PTX: 19500000 instructions simulated : ctaid=(0,0,0) tid=(10,3,0)
GPGPU-Sim uArch: cycles simulated: 40000  inst.: 17445424 (ipc=436.1) sim_rate=235748 (inst/sec) elapsed = 0:0:01:14 / Tue Apr 16 16:50:00 2019
GPGPU-Sim PTX: 19600000 instructions simulated : ctaid=(0,17,0) tid=(14,0,0)
GPGPU-Sim PTX: 19700000 instructions simulated : ctaid=(0,6,0) tid=(0,2,0)
GPGPU-Sim PTX: 19800000 instructions simulated : ctaid=(0,4,0) tid=(14,2,0)
GPGPU-Sim uArch: cycles simulated: 40500  inst.: 17681525 (ipc=436.6) sim_rate=235753 (inst/sec) elapsed = 0:0:01:15 / Tue Apr 16 16:50:01 2019
GPGPU-Sim PTX: 19900000 instructions simulated : ctaid=(1,10,0) tid=(13,0,0)
GPGPU-Sim PTX: 20000000 instructions simulated : ctaid=(2,14,0) tid=(20,3,0)
GPGPU-Sim uArch: cycles simulated: 41000  inst.: 17906967 (ipc=436.8) sim_rate=235617 (inst/sec) elapsed = 0:0:01:16 / Tue Apr 16 16:50:02 2019
GPGPU-Sim PTX: 20100000 instructions simulated : ctaid=(3,17,0) tid=(26,3,0)
GPGPU-Sim PTX: 20200000 instructions simulated : ctaid=(0,0,0) tid=(13,2,0)
GPGPU-Sim PTX: 20300000 instructions simulated : ctaid=(0,18,0) tid=(22,0,0)
GPGPU-Sim PTX: 20400000 instructions simulated : ctaid=(2,23,0) tid=(25,2,0)
GPGPU-Sim PTX: 20500000 instructions simulated : ctaid=(2,24,0) tid=(22,0,0)
GPGPU-Sim PTX: 20600000 instructions simulated : ctaid=(2,11,0) tid=(1,1,0)
GPGPU-Sim uArch: cycles simulated: 42000  inst.: 18401076 (ipc=438.1) sim_rate=238975 (inst/sec) elapsed = 0:0:01:17 / Tue Apr 16 16:50:03 2019
GPGPU-Sim PTX: 20700000 instructions simulated : ctaid=(2,8,0) tid=(23,2,0)
GPGPU-Sim PTX: 20800000 instructions simulated : ctaid=(1,19,0) tid=(2,0,0)
GPGPU-Sim uArch: cycles simulated: 42500  inst.: 18630114 (ipc=438.4) sim_rate=238847 (inst/sec) elapsed = 0:0:01:18 / Tue Apr 16 16:50:04 2019
GPGPU-Sim PTX: 20900000 instructions simulated : ctaid=(1,8,0) tid=(1,3,0)
GPGPU-Sim PTX: 21000000 instructions simulated : ctaid=(3,2,0) tid=(9,0,0)
GPGPU-Sim PTX: 21100000 instructions simulated : ctaid=(1,16,0) tid=(19,3,0)
GPGPU-Sim PTX: 21200000 instructions simulated : ctaid=(1,6,0) tid=(6,0,0)
GPGPU-Sim PTX: 21300000 instructions simulated : ctaid=(2,15,0) tid=(7,2,0)
GPGPU-Sim uArch: cycles simulated: 43500  inst.: 19081379 (ipc=438.7) sim_rate=241536 (inst/sec) elapsed = 0:0:01:19 / Tue Apr 16 16:50:05 2019
GPGPU-Sim PTX: 21400000 instructions simulated : ctaid=(1,16,0) tid=(5,0,0)
GPGPU-Sim PTX: 21500000 instructions simulated : ctaid=(0,7,0) tid=(1,2,0)
GPGPU-Sim PTX: 21600000 instructions simulated : ctaid=(3,8,0) tid=(28,2,0)
GPGPU-Sim uArch: cycles simulated: 44000  inst.: 19338379 (ipc=439.5) sim_rate=241729 (inst/sec) elapsed = 0:0:01:20 / Tue Apr 16 16:50:06 2019
GPGPU-Sim PTX: 21700000 instructions simulated : ctaid=(2,21,0) tid=(6,2,0)
GPGPU-Sim PTX: 21800000 instructions simulated : ctaid=(0,6,0) tid=(2,1,0)
GPGPU-Sim PTX: 21900000 instructions simulated : ctaid=(1,6,0) tid=(30,2,0)
GPGPU-Sim PTX: 22000000 instructions simulated : ctaid=(0,15,0) tid=(29,1,0)
GPGPU-Sim PTX: 22100000 instructions simulated : ctaid=(1,7,0) tid=(9,3,0)
GPGPU-Sim uArch: cycles simulated: 45000  inst.: 19774690 (ipc=439.4) sim_rate=244131 (inst/sec) elapsed = 0:0:01:21 / Tue Apr 16 16:50:07 2019
GPGPU-Sim PTX: 22200000 instructions simulated : ctaid=(2,8,0) tid=(21,2,0)
GPGPU-Sim PTX: 22300000 instructions simulated : ctaid=(2,2,0) tid=(13,1,0)
GPGPU-Sim PTX: 22400000 instructions simulated : ctaid=(1,24,0) tid=(6,0,0)
GPGPU-Sim uArch: cycles simulated: 45500  inst.: 20035565 (ipc=440.3) sim_rate=244336 (inst/sec) elapsed = 0:0:01:22 / Tue Apr 16 16:50:08 2019
GPGPU-Sim PTX: 22500000 instructions simulated : ctaid=(0,6,0) tid=(28,1,0)
GPGPU-Sim PTX: 22600000 instructions simulated : ctaid=(2,7,0) tid=(5,2,0)
GPGPU-Sim uArch: cycles simulated: 46000  inst.: 20233855 (ipc=439.9) sim_rate=243781 (inst/sec) elapsed = 0:0:01:23 / Tue Apr 16 16:50:09 2019
GPGPU-Sim PTX: 22700000 instructions simulated : ctaid=(2,20,0) tid=(22,1,0)
GPGPU-Sim PTX: 22800000 instructions simulated : ctaid=(2,9,0) tid=(20,3,0)
GPGPU-Sim PTX: 22900000 instructions simulated : ctaid=(0,20,0) tid=(8,3,0)
GPGPU-Sim uArch: cycles simulated: 46500  inst.: 20473423 (ipc=440.3) sim_rate=243731 (inst/sec) elapsed = 0:0:01:24 / Tue Apr 16 16:50:10 2019
GPGPU-Sim PTX: 23000000 instructions simulated : ctaid=(2,17,0) tid=(27,0,0)
GPGPU-Sim PTX: 23100000 instructions simulated : ctaid=(1,6,0) tid=(0,3,0)
GPGPU-Sim PTX: 23200000 instructions simulated : ctaid=(3,13,0) tid=(13,1,0)
GPGPU-Sim PTX: 23300000 instructions simulated : ctaid=(2,10,0) tid=(23,0,0)
GPGPU-Sim PTX: 23400000 instructions simulated : ctaid=(2,17,0) tid=(23,0,0)
GPGPU-Sim PTX: 23500000 instructions simulated : ctaid=(0,12,0) tid=(7,1,0)
GPGPU-Sim uArch: cycles simulated: 47500  inst.: 20965599 (ipc=441.4) sim_rate=246654 (inst/sec) elapsed = 0:0:01:25 / Tue Apr 16 16:50:11 2019
GPGPU-Sim PTX: 23600000 instructions simulated : ctaid=(1,10,0) tid=(22,3,0)
GPGPU-Sim PTX: 23700000 instructions simulated : ctaid=(1,3,0) tid=(16,2,0)
GPGPU-Sim uArch: cycles simulated: 48000  inst.: 21194005 (ipc=441.5) sim_rate=246441 (inst/sec) elapsed = 0:0:01:26 / Tue Apr 16 16:50:12 2019
GPGPU-Sim PTX: 23800000 instructions simulated : ctaid=(0,11,0) tid=(10,0,0)
GPGPU-Sim PTX: 23900000 instructions simulated : ctaid=(2,1,0) tid=(27,3,0)
GPGPU-Sim PTX: 24000000 instructions simulated : ctaid=(0,5,0) tid=(10,0,0)
GPGPU-Sim uArch: cycles simulated: 48500  inst.: 21442589 (ipc=442.1) sim_rate=246466 (inst/sec) elapsed = 0:0:01:27 / Tue Apr 16 16:50:13 2019
GPGPU-Sim PTX: 24100000 instructions simulated : ctaid=(1,15,0) tid=(10,0,0)
GPGPU-Sim PTX: 24200000 instructions simulated : ctaid=(2,16,0) tid=(12,2,0)
GPGPU-Sim uArch: cycles simulated: 49000  inst.: 21660841 (ipc=442.1) sim_rate=246145 (inst/sec) elapsed = 0:0:01:28 / Tue Apr 16 16:50:14 2019
GPGPU-Sim PTX: 24300000 instructions simulated : ctaid=(1,17,0) tid=(26,3,0)
GPGPU-Sim PTX: 24400000 instructions simulated : ctaid=(2,10,0) tid=(10,0,0)
GPGPU-Sim PTX: 24500000 instructions simulated : ctaid=(1,2,0) tid=(5,0,0)
GPGPU-Sim uArch: cycles simulated: 49500  inst.: 21906889 (ipc=442.6) sim_rate=246144 (inst/sec) elapsed = 0:0:01:29 / Tue Apr 16 16:50:15 2019
GPGPU-Sim PTX: 24600000 instructions simulated : ctaid=(1,12,0) tid=(24,3,0)
GPGPU-Sim PTX: 24700000 instructions simulated : ctaid=(0,9,0) tid=(29,3,0)
GPGPU-Sim PTX: 24800000 instructions simulated : ctaid=(0,10,0) tid=(2,1,0)
GPGPU-Sim uArch: cycles simulated: 50000  inst.: 22152524 (ipc=443.1) sim_rate=246139 (inst/sec) elapsed = 0:0:01:30 / Tue Apr 16 16:50:16 2019
GPGPU-Sim PTX: 24900000 instructions simulated : ctaid=(0,15,0) tid=(29,0,0)
GPGPU-Sim PTX: 25000000 instructions simulated : ctaid=(0,16,0) tid=(0,1,0)
GPGPU-Sim uArch: cycles simulated: 50500  inst.: 22371342 (ipc=443.0) sim_rate=245838 (inst/sec) elapsed = 0:0:01:31 / Tue Apr 16 16:50:17 2019
GPGPU-Sim PTX: 25100000 instructions simulated : ctaid=(1,16,0) tid=(6,3,0)
GPGPU-Sim PTX: 25200000 instructions simulated : ctaid=(1,1,0) tid=(12,2,0)
GPGPU-Sim PTX: 25300000 instructions simulated : ctaid=(0,3,0) tid=(12,1,0)
GPGPU-Sim PTX: 25400000 instructions simulated : ctaid=(0,15,0) tid=(10,2,0)
GPGPU-Sim PTX: 25500000 instructions simulated : ctaid=(0,12,0) tid=(3,1,0)
GPGPU-Sim PTX: 25600000 instructions simulated : ctaid=(2,18,0) tid=(10,2,0)
GPGPU-Sim uArch: cycles simulated: 51500  inst.: 22867101 (ipc=444.0) sim_rate=248555 (inst/sec) elapsed = 0:0:01:32 / Tue Apr 16 16:50:18 2019
GPGPU-Sim PTX: 25700000 instructions simulated : ctaid=(0,16,0) tid=(17,0,0)
GPGPU-Sim PTX: 25800000 instructions simulated : ctaid=(3,2,0) tid=(2,3,0)
GPGPU-Sim uArch: cycles simulated: 52000  inst.: 23083148 (ipc=443.9) sim_rate=248205 (inst/sec) elapsed = 0:0:01:33 / Tue Apr 16 16:50:19 2019
GPGPU-Sim PTX: 25900000 instructions simulated : ctaid=(2,14,0) tid=(11,1,0)
GPGPU-Sim PTX: 26000000 instructions simulated : ctaid=(1,24,0) tid=(4,3,0)
GPGPU-Sim PTX: 26100000 instructions simulated : ctaid=(0,10,0) tid=(23,2,0)
GPGPU-Sim uArch: cycles simulated: 52500  inst.: 23318845 (ipc=444.2) sim_rate=248072 (inst/sec) elapsed = 0:0:01:34 / Tue Apr 16 16:50:20 2019
GPGPU-Sim PTX: 26200000 instructions simulated : ctaid=(1,20,0) tid=(12,1,0)
GPGPU-Sim PTX: 26300000 instructions simulated : ctaid=(0,14,0) tid=(7,2,0)
GPGPU-Sim PTX: 26400000 instructions simulated : ctaid=(1,11,0) tid=(30,3,0)
GPGPU-Sim uArch: cycles simulated: 53000  inst.: 23568627 (ipc=444.7) sim_rate=248090 (inst/sec) elapsed = 0:0:01:35 / Tue Apr 16 16:50:21 2019
GPGPU-Sim PTX: 26500000 instructions simulated : ctaid=(2,12,0) tid=(31,0,0)
GPGPU-Sim PTX: 26600000 instructions simulated : ctaid=(1,1,0) tid=(15,0,0)
GPGPU-Sim uArch: cycles simulated: 53500  inst.: 23784916 (ipc=444.6) sim_rate=247759 (inst/sec) elapsed = 0:0:01:36 / Tue Apr 16 16:50:22 2019
GPGPU-Sim PTX: 26700000 instructions simulated : ctaid=(2,13,0) tid=(2,0,0)
GPGPU-Sim PTX: 26800000 instructions simulated : ctaid=(1,4,0) tid=(1,1,0)
GPGPU-Sim PTX: 26900000 instructions simulated : ctaid=(1,1,0) tid=(16,0,0)
GPGPU-Sim uArch: cycles simulated: 54000  inst.: 24001614 (ipc=444.5) sim_rate=247439 (inst/sec) elapsed = 0:0:01:37 / Tue Apr 16 16:50:23 2019
GPGPU-Sim PTX: 27000000 instructions simulated : ctaid=(2,11,0) tid=(6,0,0)
GPGPU-Sim PTX: 27100000 instructions simulated : ctaid=(3,0,0) tid=(10,3,0)
GPGPU-Sim PTX: 27200000 instructions simulated : ctaid=(2,1,0) tid=(15,0,0)
GPGPU-Sim uArch: cycles simulated: 54500  inst.: 24268035 (ipc=445.3) sim_rate=247633 (inst/sec) elapsed = 0:0:01:38 / Tue Apr 16 16:50:24 2019
GPGPU-Sim PTX: 27300000 instructions simulated : ctaid=(2,19,0) tid=(22,3,0)
GPGPU-Sim PTX: 27400000 instructions simulated : ctaid=(1,22,0) tid=(13,3,0)
GPGPU-Sim uArch: cycles simulated: 55000  inst.: 24491817 (ipc=445.3) sim_rate=247392 (inst/sec) elapsed = 0:0:01:39 / Tue Apr 16 16:50:25 2019
GPGPU-Sim PTX: 27500000 instructions simulated : ctaid=(0,21,0) tid=(6,2,0)
GPGPU-Sim PTX: 27600000 instructions simulated : ctaid=(0,11,0) tid=(10,3,0)
GPGPU-Sim PTX: 27700000 instructions simulated : ctaid=(0,4,0) tid=(2,2,0)
GPGPU-Sim uArch: cycles simulated: 55500  inst.: 24692371 (ipc=444.9) sim_rate=246923 (inst/sec) elapsed = 0:0:01:40 / Tue Apr 16 16:50:26 2019
GPGPU-Sim PTX: 27800000 instructions simulated : ctaid=(2,12,0) tid=(28,3,0)
GPGPU-Sim PTX: 27900000 instructions simulated : ctaid=(2,1,0) tid=(22,2,0)
GPGPU-Sim PTX: 28000000 instructions simulated : ctaid=(1,18,0) tid=(23,3,0)
GPGPU-Sim uArch: cycles simulated: 56000  inst.: 24953122 (ipc=445.6) sim_rate=244638 (inst/sec) elapsed = 0:0:01:42 / Tue Apr 16 16:50:28 2019
GPGPU-Sim PTX: 28100000 instructions simulated : ctaid=(2,19,0) tid=(4,1,0)
GPGPU-Sim PTX: 28200000 instructions simulated : ctaid=(1,20,0) tid=(4,2,0)
GPGPU-Sim PTX: 28300000 instructions simulated : ctaid=(1,19,0) tid=(18,2,0)
GPGPU-Sim PTX: 28400000 instructions simulated : ctaid=(3,13,0) tid=(1,0,0)
GPGPU-Sim uArch: cycles simulated: 57000  inst.: 25391920 (ipc=445.5) sim_rate=246523 (inst/sec) elapsed = 0:0:01:43 / Tue Apr 16 16:50:29 2019
GPGPU-Sim PTX: 28500000 instructions simulated : ctaid=(1,3,0) tid=(12,0,0)
GPGPU-Sim PTX: 28600000 instructions simulated : ctaid=(3,22,0) tid=(19,3,0)
GPGPU-Sim PTX: 28700000 instructions simulated : ctaid=(0,9,0) tid=(30,1,0)
GPGPU-Sim uArch: cycles simulated: 57500  inst.: 25648984 (ipc=446.1) sim_rate=246624 (inst/sec) elapsed = 0:0:01:44 / Tue Apr 16 16:50:30 2019
GPGPU-Sim PTX: 28800000 instructions simulated : ctaid=(2,16,0) tid=(23,3,0)
GPGPU-Sim PTX: 28900000 instructions simulated : ctaid=(2,5,0) tid=(4,3,0)
GPGPU-Sim PTX: 29000000 instructions simulated : ctaid=(1,0,0) tid=(28,1,0)
GPGPU-Sim uArch: cycles simulated: 58000  inst.: 25871418 (ipc=446.1) sim_rate=246394 (inst/sec) elapsed = 0:0:01:45 / Tue Apr 16 16:50:31 2019
GPGPU-Sim PTX: 29100000 instructions simulated : ctaid=(0,11,0) tid=(29,0,0)
GPGPU-Sim PTX: 29200000 instructions simulated : ctaid=(3,0,0) tid=(26,1,0)
GPGPU-Sim uArch: cycles simulated: 58500  inst.: 26072387 (ipc=445.7) sim_rate=245965 (inst/sec) elapsed = 0:0:01:46 / Tue Apr 16 16:50:32 2019
GPGPU-Sim PTX: 29300000 instructions simulated : ctaid=(1,17,0) tid=(21,2,0)
GPGPU-Sim PTX: 29400000 instructions simulated : ctaid=(0,14,0) tid=(3,2,0)
GPGPU-Sim PTX: 29500000 instructions simulated : ctaid=(3,21,0) tid=(2,0,0)
GPGPU-Sim uArch: cycles simulated: 59000  inst.: 26311656 (ipc=446.0) sim_rate=245903 (inst/sec) elapsed = 0:0:01:47 / Tue Apr 16 16:50:33 2019
GPGPU-Sim PTX: 29600000 instructions simulated : ctaid=(0,12,0) tid=(31,0,0)
GPGPU-Sim PTX: 29700000 instructions simulated : ctaid=(1,4,0) tid=(19,3,0)
GPGPU-Sim PTX: 29800000 instructions simulated : ctaid=(0,11,0) tid=(14,3,0)
GPGPU-Sim PTX: 29900000 instructions simulated : ctaid=(2,21,0) tid=(26,0,0)
GPGPU-Sim PTX: 30000000 instructions simulated : ctaid=(1,1,0) tid=(28,1,0)
GPGPU-Sim uArch: cycles simulated: 60000  inst.: 26766569 (ipc=446.1) sim_rate=247838 (inst/sec) elapsed = 0:0:01:48 / Tue Apr 16 16:50:34 2019
GPGPU-Sim PTX: 30100000 instructions simulated : ctaid=(1,8,0) tid=(21,3,0)
GPGPU-Sim PTX: 30200000 instructions simulated : ctaid=(2,0,0) tid=(3,2,0)
GPGPU-Sim PTX: 30300000 instructions simulated : ctaid=(2,4,0) tid=(18,3,0)
GPGPU-Sim uArch: cycles simulated: 60500  inst.: 27005017 (ipc=446.4) sim_rate=247752 (inst/sec) elapsed = 0:0:01:49 / Tue Apr 16 16:50:35 2019
GPGPU-Sim PTX: 30400000 instructions simulated : ctaid=(1,6,0) tid=(17,1,0)
GPGPU-Sim PTX: 30500000 instructions simulated : ctaid=(2,8,0) tid=(13,0,0)
GPGPU-Sim uArch: cycles simulated: 61000  inst.: 27232202 (ipc=446.4) sim_rate=247565 (inst/sec) elapsed = 0:0:01:50 / Tue Apr 16 16:50:36 2019
GPGPU-Sim PTX: 30600000 instructions simulated : ctaid=(1,21,0) tid=(2,3,0)
GPGPU-Sim PTX: 30700000 instructions simulated : ctaid=(0,1,0) tid=(14,1,0)
GPGPU-Sim PTX: 30800000 instructions simulated : ctaid=(1,5,0) tid=(15,2,0)
GPGPU-Sim PTX: 30900000 instructions simulated : ctaid=(0,18,0) tid=(25,0,0)
GPGPU-Sim PTX: 31000000 instructions simulated : ctaid=(0,13,0) tid=(19,2,0)
GPGPU-Sim uArch: cycles simulated: 62000  inst.: 27672817 (ipc=446.3) sim_rate=249304 (inst/sec) elapsed = 0:0:01:51 / Tue Apr 16 16:50:37 2019
GPGPU-Sim PTX: 31100000 instructions simulated : ctaid=(2,23,0) tid=(16,2,0)
GPGPU-Sim PTX: 31200000 instructions simulated : ctaid=(3,2,0) tid=(0,1,0)
GPGPU-Sim PTX: 31300000 instructions simulated : ctaid=(2,13,0) tid=(28,0,0)
GPGPU-Sim uArch: cycles simulated: 62500  inst.: 27887874 (ipc=446.2) sim_rate=248998 (inst/sec) elapsed = 0:0:01:52 / Tue Apr 16 16:50:38 2019
GPGPU-Sim PTX: 31400000 instructions simulated : ctaid=(0,3,0) tid=(0,2,0)
GPGPU-Sim PTX: 31500000 instructions simulated : ctaid=(0,15,0) tid=(27,0,0)
GPGPU-Sim PTX: 31600000 instructions simulated : ctaid=(0,21,0) tid=(20,3,0)
GPGPU-Sim PTX: 31700000 instructions simulated : ctaid=(2,12,0) tid=(11,2,0)
GPGPU-Sim PTX: 31800000 instructions simulated : ctaid=(2,4,0) tid=(30,3,0)
GPGPU-Sim uArch: cycles simulated: 63500  inst.: 28365873 (ipc=446.7) sim_rate=251025 (inst/sec) elapsed = 0:0:01:53 / Tue Apr 16 16:50:39 2019
GPGPU-Sim PTX: 31900000 instructions simulated : ctaid=(3,1,0) tid=(27,2,0)
GPGPU-Sim PTX: 32000000 instructions simulated : ctaid=(2,1,0) tid=(8,3,0)
GPGPU-Sim uArch: cycles simulated: 64000  inst.: 28565164 (ipc=446.3) sim_rate=250571 (inst/sec) elapsed = 0:0:01:54 / Tue Apr 16 16:50:40 2019
GPGPU-Sim PTX: 32100000 instructions simulated : ctaid=(3,14,0) tid=(3,0,0)
GPGPU-Sim PTX: 32200000 instructions simulated : ctaid=(2,15,0) tid=(3,3,0)
GPGPU-Sim PTX: 32300000 instructions simulated : ctaid=(0,22,0) tid=(9,2,0)
GPGPU-Sim uArch: cycles simulated: 64500  inst.: 28805964 (ipc=446.6) sim_rate=250486 (inst/sec) elapsed = 0:0:01:55 / Tue Apr 16 16:50:41 2019
GPGPU-Sim PTX: 32400000 instructions simulated : ctaid=(1,18,0) tid=(2,0,0)
GPGPU-Sim PTX: 32500000 instructions simulated : ctaid=(2,22,0) tid=(27,3,0)
GPGPU-Sim PTX: 32600000 instructions simulated : ctaid=(0,19,0) tid=(15,0,0)
GPGPU-Sim uArch: cycles simulated: 65000  inst.: 29061993 (ipc=447.1) sim_rate=250534 (inst/sec) elapsed = 0:0:01:56 / Tue Apr 16 16:50:42 2019
GPGPU-Sim PTX: 32700000 instructions simulated : ctaid=(1,12,0) tid=(8,0,0)
GPGPU-Sim PTX: 32800000 instructions simulated : ctaid=(0,2,0) tid=(18,1,0)
GPGPU-Sim uArch: cycles simulated: 65500  inst.: 29285666 (ipc=447.1) sim_rate=250304 (inst/sec) elapsed = 0:0:01:57 / Tue Apr 16 16:50:43 2019
GPGPU-Sim PTX: 32900000 instructions simulated : ctaid=(2,19,0) tid=(24,0,0)
GPGPU-Sim PTX: 33000000 instructions simulated : ctaid=(2,18,0) tid=(13,2,0)
GPGPU-Sim PTX: 33100000 instructions simulated : ctaid=(3,24,0) tid=(29,2,0)
GPGPU-Sim uArch: cycles simulated: 66000  inst.: 29508479 (ipc=447.1) sim_rate=250071 (inst/sec) elapsed = 0:0:01:58 / Tue Apr 16 16:50:44 2019
GPGPU-Sim PTX: 33200000 instructions simulated : ctaid=(0,19,0) tid=(24,0,0)
GPGPU-Sim PTX: 33300000 instructions simulated : ctaid=(1,15,0) tid=(12,3,0)
GPGPU-Sim PTX: 33400000 instructions simulated : ctaid=(2,7,0) tid=(15,2,0)
GPGPU-Sim uArch: cycles simulated: 66500  inst.: 29767096 (ipc=447.6) sim_rate=250143 (inst/sec) elapsed = 0:0:01:59 / Tue Apr 16 16:50:45 2019
GPGPU-Sim PTX: 33500000 instructions simulated : ctaid=(0,22,0) tid=(5,0,0)
GPGPU-Sim PTX: 33600000 instructions simulated : ctaid=(0,2,0) tid=(18,0,0)
GPGPU-Sim PTX: 33700000 instructions simulated : ctaid=(0,10,0) tid=(10,2,0)
GPGPU-Sim PTX: 33800000 instructions simulated : ctaid=(1,22,0) tid=(0,0,0)
GPGPU-Sim uArch: cycles simulated: 67500  inst.: 30169518 (ipc=447.0) sim_rate=251412 (inst/sec) elapsed = 0:0:02:00 / Tue Apr 16 16:50:46 2019
GPGPU-Sim PTX: 33900000 instructions simulated : ctaid=(0,9,0) tid=(26,1,0)
GPGPU-Sim PTX: 34000000 instructions simulated : ctaid=(2,8,0) tid=(29,0,0)
GPGPU-Sim PTX: 34100000 instructions simulated : ctaid=(0,23,0) tid=(23,3,0)
GPGPU-Sim uArch: cycles simulated: 68000  inst.: 30439394 (ipc=447.6) sim_rate=251565 (inst/sec) elapsed = 0:0:02:01 / Tue Apr 16 16:50:47 2019
GPGPU-Sim PTX: 34200000 instructions simulated : ctaid=(0,20,0) tid=(14,3,0)
GPGPU-Sim PTX: 34300000 instructions simulated : ctaid=(1,4,0) tid=(31,0,0)
GPGPU-Sim PTX: 34400000 instructions simulated : ctaid=(1,17,0) tid=(28,3,0)
GPGPU-Sim PTX: 34500000 instructions simulated : ctaid=(1,17,0) tid=(12,1,0)
GPGPU-Sim PTX: 34600000 instructions simulated : ctaid=(0,10,0) tid=(0,0,0)
GPGPU-Sim uArch: cycles simulated: 69000  inst.: 30868171 (ipc=447.4) sim_rate=253017 (inst/sec) elapsed = 0:0:02:02 / Tue Apr 16 16:50:48 2019
GPGPU-Sim PTX: 34700000 instructions simulated : ctaid=(2,10,0) tid=(11,0,0)
GPGPU-Sim PTX: 34800000 instructions simulated : ctaid=(2,15,0) tid=(23,3,0)
GPGPU-Sim PTX: 34900000 instructions simulated : ctaid=(2,8,0) tid=(18,3,0)
GPGPU-Sim uArch: cycles simulated: 69500  inst.: 31123001 (ipc=447.8) sim_rate=253032 (inst/sec) elapsed = 0:0:02:03 / Tue Apr 16 16:50:49 2019
GPGPU-Sim PTX: 35000000 instructions simulated : ctaid=(0,3,0) tid=(1,0,0)
GPGPU-Sim PTX: 35100000 instructions simulated : ctaid=(3,4,0) tid=(21,1,0)
GPGPU-Sim uArch: cycles simulated: 70000  inst.: 31311391 (ipc=447.3) sim_rate=252511 (inst/sec) elapsed = 0:0:02:04 / Tue Apr 16 16:50:50 2019
GPGPU-Sim PTX: 35200000 instructions simulated : ctaid=(1,10,0) tid=(14,1,0)
GPGPU-Sim PTX: 35300000 instructions simulated : ctaid=(0,10,0) tid=(29,2,0)
GPGPU-Sim PTX: 35400000 instructions simulated : ctaid=(2,7,0) tid=(5,3,0)
GPGPU-Sim uArch: cycles simulated: 70500  inst.: 31542414 (ipc=447.4) sim_rate=252339 (inst/sec) elapsed = 0:0:02:05 / Tue Apr 16 16:50:51 2019
GPGPU-Sim PTX: 35500000 instructions simulated : ctaid=(1,17,0) tid=(2,1,0)
GPGPU-Sim PTX: 35600000 instructions simulated : ctaid=(1,6,0) tid=(10,0,0)
GPGPU-Sim uArch: cycles simulated: 71000  inst.: 31792063 (ipc=447.8) sim_rate=252317 (inst/sec) elapsed = 0:0:02:06 / Tue Apr 16 16:50:52 2019
GPGPU-Sim PTX: 35700000 instructions simulated : ctaid=(0,15,0) tid=(14,3,0)
GPGPU-Sim PTX: 35800000 instructions simulated : ctaid=(2,20,0) tid=(4,3,0)
GPGPU-Sim PTX: 35900000 instructions simulated : ctaid=(0,9,0) tid=(26,0,0)
GPGPU-Sim PTX: 36000000 instructions simulated : ctaid=(2,1,0) tid=(30,3,0)
GPGPU-Sim PTX: 36100000 instructions simulated : ctaid=(1,3,0) tid=(1,2,0)
GPGPU-Sim uArch: cycles simulated: 72000  inst.: 32227523 (ipc=447.6) sim_rate=253760 (inst/sec) elapsed = 0:0:02:07 / Tue Apr 16 16:50:53 2019
GPGPU-Sim PTX: 36200000 instructions simulated : ctaid=(1,11,0) tid=(14,2,0)
GPGPU-Sim PTX: 36300000 instructions simulated : ctaid=(0,8,0) tid=(20,1,0)
GPGPU-Sim PTX: 36400000 instructions simulated : ctaid=(1,0,0) tid=(21,2,0)
GPGPU-Sim uArch: cycles simulated: 72500  inst.: 32462933 (ipc=447.8) sim_rate=253616 (inst/sec) elapsed = 0:0:02:08 / Tue Apr 16 16:50:54 2019
GPGPU-Sim PTX: 36500000 instructions simulated : ctaid=(0,3,0) tid=(27,1,0)
GPGPU-Sim PTX: 36600000 instructions simulated : ctaid=(0,23,0) tid=(27,1,0)
GPGPU-Sim uArch: cycles simulated: 73000  inst.: 32672661 (ipc=447.6) sim_rate=253276 (inst/sec) elapsed = 0:0:02:09 / Tue Apr 16 16:50:55 2019
GPGPU-Sim PTX: 36700000 instructions simulated : ctaid=(2,6,0) tid=(19,0,0)
GPGPU-Sim PTX: 36800000 instructions simulated : ctaid=(2,17,0) tid=(25,2,0)
GPGPU-Sim PTX: 36900000 instructions simulated : ctaid=(2,20,0) tid=(4,1,0)
GPGPU-Sim PTX: 37000000 instructions simulated : ctaid=(1,13,0) tid=(21,1,0)
GPGPU-Sim PTX: 37100000 instructions simulated : ctaid=(0,7,0) tid=(26,2,0)
GPGPU-Sim PTX: 37200000 instructions simulated : ctaid=(0,23,0) tid=(27,2,0)
GPGPU-Sim uArch: cycles simulated: 74000  inst.: 33166594 (ipc=448.2) sim_rate=255127 (inst/sec) elapsed = 0:0:02:10 / Tue Apr 16 16:50:56 2019
GPGPU-Sim PTX: 37300000 instructions simulated : ctaid=(2,10,0) tid=(11,0,0)
GPGPU-Sim PTX: 37400000 instructions simulated : ctaid=(2,2,0) tid=(22,0,0)
GPGPU-Sim PTX: 37500000 instructions simulated : ctaid=(3,5,0) tid=(20,0,0)
GPGPU-Sim uArch: cycles simulated: 74500  inst.: 33402219 (ipc=448.4) sim_rate=254978 (inst/sec) elapsed = 0:0:02:11 / Tue Apr 16 16:50:57 2019
GPGPU-Sim PTX: 37600000 instructions simulated : ctaid=(2,16,0) tid=(10,3,0)
GPGPU-Sim PTX: 37700000 instructions simulated : ctaid=(1,7,0) tid=(6,3,0)
GPGPU-Sim uArch: cycles simulated: 75000  inst.: 33647793 (ipc=448.6) sim_rate=254907 (inst/sec) elapsed = 0:0:02:12 / Tue Apr 16 16:50:58 2019
GPGPU-Sim PTX: 37800000 instructions simulated : ctaid=(1,13,0) tid=(31,3,0)
GPGPU-Sim PTX: 37900000 instructions simulated : ctaid=(2,22,0) tid=(31,2,0)
GPGPU-Sim PTX: 38000000 instructions simulated : ctaid=(1,0,0) tid=(24,3,0)
GPGPU-Sim PTX: 38100000 instructions simulated : ctaid=(0,9,0) tid=(24,3,0)
GPGPU-Sim PTX: 38200000 instructions simulated : ctaid=(3,5,0) tid=(0,1,0)
GPGPU-Sim PTX: 38300000 instructions simulated : ctaid=(0,19,0) tid=(16,2,0)
GPGPU-Sim uArch: cycles simulated: 76000  inst.: 34122767 (ipc=449.0) sim_rate=256562 (inst/sec) elapsed = 0:0:02:13 / Tue Apr 16 16:50:59 2019
GPGPU-Sim PTX: 38400000 instructions simulated : ctaid=(1,12,0) tid=(8,2,0)
GPGPU-Sim PTX: 38500000 instructions simulated : ctaid=(1,9,0) tid=(16,0,0)
GPGPU-Sim uArch: cycles simulated: 76500  inst.: 34348484 (ipc=449.0) sim_rate=256331 (inst/sec) elapsed = 0:0:02:14 / Tue Apr 16 16:51:00 2019
GPGPU-Sim PTX: 38600000 instructions simulated : ctaid=(2,0,0) tid=(9,2,0)
GPGPU-Sim PTX: 38700000 instructions simulated : ctaid=(3,5,0) tid=(19,2,0)
GPGPU-Sim PTX: 38800000 instructions simulated : ctaid=(2,23,0) tid=(23,1,0)
GPGPU-Sim uArch: cycles simulated: 77000  inst.: 34564369 (ipc=448.9) sim_rate=256032 (inst/sec) elapsed = 0:0:02:15 / Tue Apr 16 16:51:01 2019
GPGPU-Sim PTX: 38900000 instructions simulated : ctaid=(0,16,0) tid=(14,0,0)
GPGPU-Sim PTX: 39000000 instructions simulated : ctaid=(2,7,0) tid=(24,2,0)
GPGPU-Sim uArch: cycles simulated: 77500  inst.: 34806870 (ipc=449.1) sim_rate=255932 (inst/sec) elapsed = 0:0:02:16 / Tue Apr 16 16:51:02 2019
GPGPU-Sim PTX: 39100000 instructions simulated : ctaid=(2,10,0) tid=(11,0,0)
GPGPU-Sim PTX: 39200000 instructions simulated : ctaid=(1,19,0) tid=(5,3,0)
GPGPU-Sim PTX: 39300000 instructions simulated : ctaid=(3,2,0) tid=(3,3,0)
GPGPU-Sim PTX: 39400000 instructions simulated : ctaid=(1,2,0) tid=(1,2,0)
GPGPU-Sim PTX: 39500000 instructions simulated : ctaid=(0,16,0) tid=(11,1,0)
GPGPU-Sim PTX: 39600000 instructions simulated : ctaid=(2,18,0) tid=(30,3,0)
GPGPU-Sim uArch: cycles simulated: 78500  inst.: 35272977 (ipc=449.3) sim_rate=257466 (inst/sec) elapsed = 0:0:02:17 / Tue Apr 16 16:51:03 2019
GPGPU-Sim PTX: 39700000 instructions simulated : ctaid=(2,21,0) tid=(2,0,0)
GPGPU-Sim PTX: 39800000 instructions simulated : ctaid=(2,16,0) tid=(5,0,0)
GPGPU-Sim uArch: cycles simulated: 79000  inst.: 35511553 (ipc=449.5) sim_rate=257330 (inst/sec) elapsed = 0:0:02:18 / Tue Apr 16 16:51:04 2019
GPGPU-Sim PTX: 39900000 instructions simulated : ctaid=(1,14,0) tid=(31,2,0)
GPGPU-Sim PTX: 40000000 instructions simulated : ctaid=(2,0,0) tid=(20,3,0)
GPGPU-Sim PTX: 40100000 instructions simulated : ctaid=(1,3,0) tid=(5,0,0)
GPGPU-Sim uArch: cycles simulated: 79500  inst.: 35753959 (ipc=449.7) sim_rate=257222 (inst/sec) elapsed = 0:0:02:19 / Tue Apr 16 16:51:05 2019
GPGPU-Sim PTX: 40200000 instructions simulated : ctaid=(1,22,0) tid=(30,1,0)
GPGPU-Sim PTX: 40300000 instructions simulated : ctaid=(0,21,0) tid=(13,1,0)
GPGPU-Sim PTX: 40400000 instructions simulated : ctaid=(0,5,0) tid=(27,2,0)
[...]
maxdqlatency = 0 
maxmflatency = 1116 
averagemflatency = 236 
max_icnt2mem_latency = 473 
max_icnt2sh_latency = 188116 
mrq_lat_table:57026 	3426 	3451 	9213 	23026 	18930 	8695 	1540 	94 	0 	0 	0 	0 	0 	0 	0 	0 	0 	0 	0 	0 	0 	0 	0 	0 	0 	0 	0 	0 	0 	0 	0 	
dq_lat_table:0 	0 	0 	0 	0 	0 	0 	0 	0 	0 	0 	0 	0 	0 	0 	0 	0 	0 	0 	0 	0 	0 	0 	0 	0 	0 	0 	0 	0 	0 	0 	0 	
mf_lat_table:0 	0 	0 	0 	0 	0 	0 	102466 	83913 	1030 	33 	0 	0 	0 	0 	0 	0 	0 	0 	0 	0 	0 	0 	0 	0 	0 	0 	0 	0 	0 	0 	0 	
icnt2mem_lat_table:0 	0 	0 	127906 	50643 	8054 	800 	110 	139 	0 	0 	0 	0 	0 	0 	0 	0 	0 	0 	0 	0 	0 	0 	0 	
icnt2sh_lat_table:0 	0 	0 	28979 	65681 	25733 	799 	0 	0 	0 	0 	0 	1289 	3508 	6963 	13972 	27693 	12825 	0 	0 	0 	0 	0 	0 	
mf_lat_pw_table:0 	0 	0 	0 	0 	0 	0 	357 	16 	2 	0 	0 	0 	0 	0 	0 	0 	0 	0 	0 	0 	0 	0 	0 	0 	0 	0 	0 	0 	0 	0 	0 	
maximum concurrent accesses to same row:
dram[0]:        17        17        15        17        19        20        32        32        60        67        19        35        24        28        15        19 
dram[1]:        14        18        17        14        19        17        32        32        57        65        16        28        21        30        23        18 
dram[2]:        20        17        15        20        19        16        32        32        61        69        34        18        23        23        30        18 
dram[3]:        19        21        13        19        18        19        32        32        62        76        26        37        28        21        39        21 
dram[4]:        20        13        17        13        25        28        32        32        65        62        19        25        19        23        29        21 
dram[5]:        21        16        17        18        19        25        32        32        68        61        32        38        23        20        15        31 
maximum service time to same row:
dram[0]:     11235     10188     13552     13893     13597     14046     15334     15431     11884     12000     10978     10948     10792     10913     10150     10304 
dram[1]:     10733     11888     13550     13888     13602     13972     15415     15662     12356     12078     11071     11264     11030     10775     10163     10597 
dram[2]:     11130     12210     13550     13877     13593     13955     14671     15488     11944     12512     11125     11337     10863     10326     10162     10453 
dram[3]:     10250     12209     13565     13922     13625     13944     15341     15728     12506     12229     11123     11038     10162     10803     10172     10447 
dram[4]:      9570     12190     13563     13822     13612     13887     15365     15715     11899     12654     11298     11044     10473     10636     10169     10457 
dram[5]:      8591     11700     13616     13543     13312     13430     15381     15701     12385     11941     11168     11246     10301     10806     10166     10477 
average row accesses per activate:
dram[0]:  2.573146  2.609312  2.605263  2.634298  2.619145  2.647059  2.564202  2.756814  2.649225  2.929936  2.585462  2.713992  2.527559  2.543825  2.379888  2.647773 
dram[1]:  2.538461  2.498070  2.496078  2.586207  2.550898  2.502901  2.587891  2.625000  2.777096  2.863636  2.655311  2.747934  2.597166  2.746809  2.441905  2.672165 
dram[2]:  2.549801  2.493230  2.533730  2.556660  2.556660  2.586481  2.518164  2.650000  2.728543  2.756436  2.680723  2.775898  2.459770  2.501953  2.476008  2.579365 
dram[3]:  2.633947  2.535433  2.598377  2.682573  2.658436  2.556436  2.678138  2.638554  2.658915  2.838115  2.563953  2.636000  2.564257  2.498055  2.403738  2.626775 
dram[4]:  2.528600  2.498055  2.468872  2.517578  2.678350  2.528376  2.687885  2.513359  2.842650  2.689320  2.695740  2.549323  2.623722  2.637295  2.470476  2.518664 
dram[5]:  2.673597  2.409434  2.592668  2.565737  2.605210  2.679834  2.771186  2.624751  2.894515  2.717092  2.721312  2.675403  2.691176  2.507782  2.521318  2.459924 
average row locality = 125401/48086 = 2.607848
number of total memory accesses made:
dram[0]:         0         0         0         0         0         0         0         0         0         0         0         0         0         0         0         0 
dram[1]:         0         0         0         0         0         0         0         0         0         0         0         0         0         0         0         0 
dram[2]:         0         0         0         0         0         0         0         0         0         0         0         0         0         0         0         0 
dram[3]:         0         0         0         0         0         0         0         0         0         0         0         0         0         0         0         0 
dram[4]:         0         0         0         0         0         0         0         0         0         0         0         0         0         0         0         0 
dram[5]:         0         0         0         0         0         0         0         0         0         0         0         0         0         0         0         0 
total accesses: 0
min_bank_accesses = 0!
min_chip_accesses = 0!
number of total read accesses:
dram[0]:       658       654       660       649       662       663       682       688       681       686       666       667       650       652       652       658 
dram[1]:       654       661       656       649       663       659       687       684       685       686       668       670       652       655       648       653 
dram[2]:       656       657       657       653       665       664       684       689       682       685       670       667       659       650       655       653 
dram[3]:       656       656       656       650       667       661       686       684       688       686       664       668       651       649       650       654 
dram[4]:       657       659       648       652       662       664       686       684       683       685       668       663       654       650       652       653 
dram[5]:       658       655       652       651       660       663       684       684       683       687       666       668       652       650       656       655 
total reads: 63774
bank skew: 689/648 = 1.06
chip skew: 10646/10620 = 1.00
number of total write accesses:
dram[0]:       626       635       627       626       624       642       636       627       686       694       650       652       634       625       626       650 
dram[1]:       633       633       617       626       615       635       638       618       673       700       657       660       631       636       634       643 
dram[2]:       624       632       620       633       621       637       633       636       685       707       665       646       625       631       635       647 
dram[3]:       632       632       625       643       625       630       637       630       684       699       659       650       626       635       636       641 
dram[4]:       625       625       621       637       637       628       623       633       690       700       661       655       629       637       645       629 
dram[5]:       628       622       621       637       640       626       624       631       689       696       662       659       629       639       645       634 
total reads: 61627
bank skew: 707/615 = 1.15
chip skew: 10284/10249 = 1.00
average mf latency per bank:
dram[0]:        350       345       349       351       350       354       362       367       362       367       350       349       355       356       354       355
dram[1]:        342       347       349       350       348       358       363       372       367       369       345       345       349       348       349       352
dram[2]:        347       348       346       353       346       356       364       362       362       377       347       352       345       350       342       350
dram[3]:        350       344       348       350       352       351       363       361       361       372       353       353       353       355       350       351
dram[4]:        349       347       350       348       349       351       364       359       364       363       343       354       351       352       344       351
dram[5]:        345       346       350       350       353       354       370       363       366       361       348       348       350       351       345       350
maximum mf latency per bank:
dram[0]:        480       559       646       484       549       596       458       562      1003       980       907       538       518       643       565       567
dram[1]:        504       522       507       464       514       509       462       529       979      1032       492       651       630       483       544       545
dram[2]:        492       497       473       553       497       485       579       495       988      1116       633       560       518       492       578       552
dram[3]:        470       476       513       526       501       523       461       484       928      1098       593       791       595       782       643       645
dram[4]:        576       468       490       517       585       515       513       503       927      1086       563       686       515       729       546       587
dram[5]:        532       518       466       591       522       501       496       571       995      1053       608       775       539       506       545       696

Number of Memory Banks Accessed per Memory Operation per Warp (from 0):
0	0	0	0	0	0	0	0	0	0	0	0	0	0	0	0	0	0	0	0	0	0	0	0	0	0	0	0	0	0	0	0	0	0	0	0	0	0	0	0	0	0	0	0	0	0	0	0	0	0	0	0	0	0	0	0	0	0	0	0	0	0	0	0	0	0	0	0	0	0	0	0	0	0	0	0	0	0	0	0	0	0	0	0	0	0	0	0	0	0	0	0	0	0	0	0	
Average # of Memory Banks Accessed per Memory Operation per Warp=-nan

position of mrq chosen
0	0	0	0	0	0	0	0	0	0	0	0	0	0	0	0	

average position of mrq chosen = -nan
Memory Partition 0: 
Cache L2_bank_000:
MSHR contents

Cache L2_bank_001:
MSHR contents

In Dram Latency Queue (total = 0): 
DRAM[0]: 16 bks, busW=4 BL=8 CL=12, tRRD=2 tCCD=6, tRCD=12 tRAS=28 tRP=12 tRC=40
n_cmd=248314 n_nop=195013 n_act=7969 n_pre=7953 n_req=20888 n_rd=21256 n_write=16123 bw_util=0.3011
n_activity=208560 dram_eff=0.3584
bk0: 1316a 216351i bk1: 1308a 216182i bk2: 1320a 215860i bk3: 1298a 216425i bk4: 1324a 216633i bk5: 1326a 216535i bk6: 1364a 215140i bk7: 1376a 214617i bk8: 1362a 214096i bk9: 1372a 215552i bk10: 1332a 215622i bk11: 1334a 216112i bk12: 1300a 215298i bk13: 1304a 215751i bk14: 1304a 215208i bk15: 1316a 215717i 
dram_util_bins: 0 0 0 0 0 0 0 0 0 0
dram_eff_bins: 0 0 0 0 0 0 0 0 0 0
mrqq: max=16 avg=2.15922
Memory Partition 1: 
Cache L2_bank_002:
MSHR contents

Cache L2_bank_003:
MSHR contents

In Dram Latency Queue (total = 0): 
DRAM[1]: 16 bks, busW=4 BL=8 CL=12, tRRD=2 tCCD=6, tRCD=12 tRAS=28 tRP=12 tRC=40
n_cmd=248314 n_nop=194982 n_act=7984 n_pre=7968 n_req=20879 n_rd=21260 n_write=16120 bw_util=0.3011
n_activity=207687 dram_eff=0.36
bk0: 1308a 216734i bk1: 1322a 215945i bk2: 1312a 216566i bk3: 1298a 215630i bk4: 1326a 215546i bk5: 1318a 215205i bk6: 1374a 215640i bk7: 1368a 214442i bk8: 1370a 215510i bk9: 1372a 215802i bk10: 1336a 216166i bk11: 1340a 216012i bk12: 1304a 215582i bk13: 1310a 216027i bk14: 1296a 215057i bk15: 1306a 215958i 
dram_util_bins: 0 0 0 0 0 0 0 0 0 0
dram_eff_bins: 0 0 0 0 0 0 0 0 0 0
mrqq: max=16 avg=2.21395
Memory Partition 2: 
Cache L2_bank_004:
MSHR contents

Cache L2_bank_005:
MSHR contents

In Dram Latency Queue (total = 0): 
DRAM[2]: 16 bks, busW=4 BL=8 CL=12, tRRD=2 tCCD=6, tRCD=12 tRAS=28 tRP=12 tRC=40
n_cmd=248314 n_nop=194737 n_act=8091 n_pre=8075 n_req=20923 n_rd=21292 n_write=16119 bw_util=0.3013
n_activity=208464 dram_eff=0.3589
bk0: 1312a 216652i bk1: 1314a 216125i bk2: 1314a 217024i bk3: 1306a 215844i bk4: 1330a 216724i bk5: 1328a 215488i bk6: 1368a 214832i bk7: 1378a 215331i bk8: 1364a 216092i bk9: 1370a 214394i bk10: 1340a 215884i bk11: 1334a 215953i bk12: 1318a 215485i bk13: 1300a 215041i bk14: 1310a 215238i bk15: 1306a 214487i 
dram_util_bins: 0 0 0 0 0 0 0 0 0 0
dram_eff_bins: 0 0 0 0 0 0 0 0 0 0
mrqq: max=16 avg=2.21973
Memory Partition 3: 
Cache L2_bank_006:
MSHR contents

Cache L2_bank_007:
MSHR contents
MSHR: tag=0x807a0580, atomic=0 1 entries : 0x7f57c8c3d5f0 :  mf: uid=2694201, sid03:w24, part=3, addr=0x807a0580, load , size=128, unknown  status = IN_PARTITION_DRAM (188114), 

In Dram Latency Queue (total = 0): 
DRAM[3]: 16 bks, busW=4 BL=8 CL=12, tRRD=2 tCCD=6, tRCD=12 tRAS=28 tRP=12 tRC=40
n_cmd=248314 n_nop=194919 n_act=8015 n_pre=7999 n_req=20910 n_rd=21252 n_write=16129 bw_util=0.3011
n_activity=208434 dram_eff=0.3587
bk0: 1312a 216838i bk1: 1312a 216178i bk2: 1312a 216551i bk3: 1300a 216017i bk4: 1334a 216402i bk5: 1322a 215821i bk6: 1372a 215157i bk7: 1368a 214592i bk8: 1376a 214779i bk9: 1372a 215489i bk10: 1328a 215116i bk11: 1336a 215889i bk12: 1302a 215737i bk13: 1298a 215761i bk14: 1300a 215039i bk15: 1308a 215290i 
dram_util_bins: 0 0 0 0 0 0 0 0 0 0
dram_eff_bins: 0 0 0 0 0 0 0 0 0 0
mrqq: max=16 avg=2.17868
Memory Partition 4: 
Cache L2_bank_008:
MSHR contents

Cache L2_bank_009:
MSHR contents

In Dram Latency Queue (total = 0): 
DRAM[4]: 16 bks, busW=4 BL=8 CL=12, tRRD=2 tCCD=6, tRCD=12 tRAS=28 tRP=12 tRC=40
n_cmd=248314 n_nop=194782 n_act=8073 n_pre=8057 n_req=20895 n_rd=21240 n_write=16162 bw_util=0.3012
n_activity=207610 dram_eff=0.3603
bk0: 1314a 216921i bk1: 1318a 215817i bk2: 1296a 215345i bk3: 1304a 215422i bk4: 1324a 216412i bk5: 1328a 215452i bk6: 1372a 215580i bk7: 1368a 214972i bk8: 1366a 215683i bk9: 1370a 214607i bk10: 1336a 216052i bk11: 1326a 214710i bk12: 1308a 215787i bk13: 1300a 215952i bk14: 1304a 214698i bk15: 1306a 214231i 
dram_util_bins: 0 0 0 0 0 0 0 0 0 0
dram_eff_bins: 0 0 0 0 0 0 0 0 0 0
mrqq: max=16 avg=2.22371
Memory Partition 5: 
Cache L2_bank_010:
MSHR contents

Cache L2_bank_011:
MSHR contents

In Dram Latency Queue (total = 0): 
DRAM[5]: 16 bks, busW=4 BL=8 CL=12, tRRD=2 tCCD=6, tRCD=12 tRAS=28 tRP=12 tRC=40
n_cmd=248314 n_nop=195012 n_act=7954 n_pre=7938 n_req=20906 n_rd=21248 n_write=16162 bw_util=0.3013
n_activity=207547 dram_eff=0.3605
bk0: 1316a 217962i bk1: 1310a 215278i bk2: 1304a 216729i bk3: 1302a 215971i bk4: 1320a 215593i bk5: 1326a 215994i bk6: 1368a 215957i bk7: 1368a 215312i bk8: 1366a 216025i bk9: 1374a 214202i bk10: 1332a 215778i bk11: 1336a 215943i bk12: 1304a 216694i bk13: 1300a 215595i bk14: 1312a 215048i bk15: 1310a 214429i 
dram_util_bins: 0 0 0 0 0 0 0 0 0 0
dram_eff_bins: 0 0 0 0 0 0 0 0 0 0
mrqq: max=16 avg=2.17641

========= L2 cache stats =========
L2_cache_bank[0]: Access = 15664, Miss = 5311, Miss_rate = 0.339, Pending_hits = 2322, Reservation_fails = 361
L2_cache_bank[1]: Access = 15706, Miss = 5317, Miss_rate = 0.339, Pending_hits = 2506, Reservation_fails = 286
L2_cache_bank[2]: Access = 15607, Miss = 5313, Miss_rate = 0.340, Pending_hits = 2381, Reservation_fails = 326
L2_cache_bank[3]: Access = 15647, Miss = 5317, Miss_rate = 0.340, Pending_hits = 2525, Reservation_fails = 12
L2_cache_bank[4]: Access = 15635, Miss = 5328, Miss_rate = 0.341, Pending_hits = 2333, Reservation_fails = 243
L2_cache_bank[5]: Access = 15585, Miss = 5318, Miss_rate = 0.341, Pending_hits = 2528, Reservation_fails = 334
L2_cache_bank[6]: Access = 15642, Miss = 5318, Miss_rate = 0.340, Pending_hits = 2443, Reservation_fails = 326
L2_cache_bank[7]: Access = 15595, Miss = 5308, Miss_rate = 0.340, Pending_hits = 2450, Reservation_fails = 9
L2_cache_bank[8]: Access = 15657, Miss = 5310, Miss_rate = 0.339, Pending_hits = 2373, Reservation_fails = 238
L2_cache_bank[9]: Access = 15621, Miss = 5310, Miss_rate = 0.340, Pending_hits = 2366, Reservation_fails = 206
L2_cache_bank[10]: Access = 15659, Miss = 5311, Miss_rate = 0.339, Pending_hits = 2442, Reservation_fails = 165
L2_cache_bank[11]: Access = 15634, Miss = 5313, Miss_rate = 0.340, Pending_hits = 2378, Reservation_fails = 87
L2_total_cache_accesses = 187652
L2_total_cache_misses = 63774
L2_total_cache_miss_rate = 0.3399
L2_total_cache_pending_hits = 29047
L2_total_cache_reservation_fails = 2593
L2_total_cache_breakdown:
	L2_cache_stats_breakdown[GLOBAL_ACC_R][HIT] = 73726
	L2_cache_stats_breakdown[GLOBAL_ACC_R][HIT_RESERVED] = 15308
	L2_cache_stats_breakdown[GLOBAL_ACC_R][MISS] = 32143
	L2_cache_stats_breakdown[GLOBAL_ACC_R][RESERVATION_FAIL] = 1210
	L2_cache_stats_breakdown[CONST_ACC_R][HIT] = 11
	L2_cache_stats_breakdown[CONST_ACC_R][HIT_RESERVED] = 3
	L2_cache_stats_breakdown[CONST_ACC_R][MISS] = 1
	L2_cache_stats_breakdown[CONST_ACC_R][RESERVATION_FAIL] = 108
	L2_cache_stats_breakdown[GLOBAL_ACC_W][HIT] = 20940
	L2_cache_stats_breakdown[GLOBAL_ACC_W][HIT_RESERVED] = 13694
	L2_cache_stats_breakdown[GLOBAL_ACC_W][MISS] = 31616
	L2_cache_stats_breakdown[GLOBAL_ACC_W][RESERVATION_FAIL] = 92
	L2_cache_stats_breakdown[INST_ACC_R][HIT] = 154
	L2_cache_stats_breakdown[INST_ACC_R][HIT_RESERVED] = 42
	L2_cache_stats_breakdown[INST_ACC_R][MISS] = 14
	L2_cache_stats_breakdown[INST_ACC_R][RESERVATION_FAIL] = 1183
L2_cache_data_port_util = 0.167
L2_cache_fill_port_util = 0.113

icnt_total_pkts_mem_to_simt=673230
icnt_total_pkts_simt_to_mem=347652
LD_mem_lat_dist  0 0 0 0 0 0 0 0 0 0 0 0 0 0 0 0 0 0 0 0 0 0 0 0 0 0 0
ST_mem_lat_dist  0 0 0 0 0 0 0 0 0 0 0 0 0 0 0 0 0 0 0 0 0 0 0 0 0 0 0
----------------------------Interconnect-DETAILS--------------------------------
Class 0:
Packet latency average = 16.2873
	minimum = 6
	maximum = 385
Network latency average = 13.3766
	minimum = 6
	maximum = 379
Slowest packet = 6336
Flit latency average = 11.9487
	minimum = 6
	maximum = 379
Slowest flit = 18768
Fragmentation average = 0.000583527
	minimum = 0
	maximum = 111
Injected packet rate average = 0.073891
	minimum = 0.0564223 (at node 13)
	maximum = 0.0834906 (at node 16)
Accepted packet rate average = 0.073891
	minimum = 0.0564223 (at node 13)
	maximum = 0.0834906 (at node 16)
Injected flit rate average = 0.200994
	minimum = 0.103202 (at node 13)
	maximum = 0.300037 (at node 16)
Accepted flit rate average= 0.200994
	minimum = 0.153723 (at node 20)
	maximum = 0.264665 (at node 7)
Injected packet length average = 2.72015
Accepted packet length average = 2.72015
Total in-flight flits = 0 (0 measured)
====== Overall Traffic Statistics ======
====== Traffic class 0 ======
Packet latency average = 16.2873 (1 samples)
	minimum = 6 (1 samples)
	maximum = 385 (1 samples)
Network latency average = 13.3766 (1 samples)
	minimum = 6 (1 samples)
	maximum = 379 (1 samples)
Flit latency average = 11.9487 (1 samples)
	minimum = 6 (1 samples)
	maximum = 379 (1 samples)
Fragmentation average = 0.000583527 (1 samples)
	minimum = 0 (1 samples)
	maximum = 111 (1 samples)
Injected packet rate average = 0.073891 (1 samples)
	minimum = 0.0564223 (1 samples)
	maximum = 0.0834906 (1 samples)
Accepted packet rate average = 0.073891 (1 samples)
	minimum = 0.0564223 (1 samples)
	maximum = 0.0834906 (1 samples)
Injected flit rate average = 0.200994 (1 samples)
	minimum = 0.103202 (1 samples)
	maximum = 0.300037 (1 samples)
Accepted flit rate average = 0.200994 (1 samples)
	minimum = 0.153723 (1 samples)
	maximum = 0.264665 (1 samples)
Injected packet size average = 2.72015 (1 samples)
Accepted packet size average = 2.72015 (1 samples)
Hops average = 1 (1 samples)
----------------------------END-of-Interconnect-DETAILS-------------------------


gpgpu_simulation_time = 0 days, 0 hrs, 4 min, 39 sec (279 sec)
gpgpu_simulation_rate = 260615 (inst/sec)
gpgpu_simulation_rate = 674 (cycle/sec)
GPGPU-Sim: synchronize waiting for inactive GPU simulation
GPGPU-Sim API: Stream Manager State
GPGPU-Sim: detected inactive GPU simulation thread

1x GPU_laplace3d: 278616.437500 (ms) 

Copy u2 to host: 164.891006 (ms) 

1x Gold_laplace3d: 28.198000 (ms) 
 

 rms error = 0.000000 
CUDA_SAFE_CALL( cudaFree(d_u1) );
CUDA_SAFE_CALL( cudaFree(d_u2) );
free(h_u1);
free(h_u2);
free(h_u3);

Press ENTER to exit...
