

        *** GPGPU-Sim Simulator Version 3.2.2  [build 0] ***


GPGPU-Sim PTX: simulation mode 0 (can change with PTX_SIM_MODE_FUNC environment variable:
               1=functional simulation only, 0=detailed performance simulator)
GPGPU-Sim: Configuration options:

-network_mode                           1 # Interconnection network mode
-inter_config_file   config_fermi_islip.icnt # Interconnection network config file
-gpgpu_ptx_use_cuobjdump                    1 # Use cuobjdump to extract ptx and sass from binaries
-gpgpu_experimental_lib_support                    0 # Try to extract code from cuda libraries [Broken because of unknown cudaGetExportTable]
-gpgpu_ptx_convert_to_ptxplus                    0 # Convert SASS (native ISA) to ptxplus and run ptxplus
-gpgpu_ptx_force_max_capability                   20 # Force maximum compute capability
-gpgpu_ptx_inst_debug_to_file                    0 # Dump executed instructions' debug information to file
-gpgpu_ptx_inst_debug_file       inst_debug.txt # Executed instructions' debug output file
-gpgpu_ptx_inst_debug_thread_uid                    1 # Thread UID for executed instructions' debug output
-gpgpu_simd_model                       1 # 1 = post-dominator
-gpgpu_shader_core_pipeline              1536:32 # shader core pipeline config, i.e., {<nthread>:<warpsize>}
-gpgpu_tex_cache:l1  4:128:24,L:R:m:N:L,F:128:4,128:2 # per-shader L1 texture cache  (READ-ONLY) config  {<nsets>:<bsize>:<assoc>,<rep>:<wr>:<alloc>:<wr_alloc>,<mshr>:<N>:<merge>,<mq>:<rf>}
-gpgpu_const_cache:l1 64:64:2,L:R:f:N:L,A:2:32,4 # per-shader L1 constant memory cache  (READ-ONLY) config  {<nsets>:<bsize>:<assoc>,<rep>:<wr>:<alloc>:<wr_alloc>,<mshr>:<N>:<merge>,<mq>} 
-gpgpu_cache:il1     4:128:4,L:R:f:N:L,A:2:32,4 # shader L1 instruction cache config  {<nsets>:<bsize>:<assoc>,<rep>:<wr>:<alloc>:<wr_alloc>,<mshr>:<N>:<merge>,<mq>} 
-gpgpu_cache:dl1     32:128:4,L:L:m:N:H,A:32:8,8 # per-shader L1 data cache config  {<nsets>:<bsize>:<assoc>,<rep>:<wr>:<alloc>:<wr_alloc>,<mshr>:<N>:<merge>,<mq> | none}
-gpgpu_cache:dl1PrefL1                 none # per-shader L1 data cache config  {<nsets>:<bsize>:<assoc>,<rep>:<wr>:<alloc>:<wr_alloc>,<mshr>:<N>:<merge>,<mq> | none}
-gpgpu_cache:dl1PreShared                 none # per-shader L1 data cache config  {<nsets>:<bsize>:<assoc>,<rep>:<wr>:<alloc>:<wr_alloc>,<mshr>:<N>:<merge>,<mq> | none}
-gmem_skip_L1D                          0 # global memory access skip L1D cache (implements -Xptxas -dlcm=cg, default=no skip)
-gpgpu_perfect_mem                      0 # enable perfect memory mode (no cache miss)
-n_regfile_gating_group                    4 # group of lanes that should be read/written together)
-gpgpu_clock_gated_reg_file                    0 # enable clock gated reg file for power calculations
-gpgpu_clock_gated_lanes                    0 # enable clock gated lanes for power calculations
-gpgpu_shader_registers                32768 # Number of registers per shader core. Limits number of concurrent CTAs. (default 8192)
-gpgpu_shader_cta                       8 # Maximum number of concurrent CTAs in shader (default 8)
-gpgpu_num_cta_barriers                   16 # Maximum number of named barriers per CTA (default 16)
-gpgpu_n_clusters                      15 # number of processing clusters
-gpgpu_n_cores_per_cluster                    1 # number of simd cores per cluster
-gpgpu_n_cluster_ejection_buffer_size                    8 # number of packets in ejection buffer
-gpgpu_n_ldst_response_buffer_size                    2 # number of response packets in ld/st unit ejection buffer
-gpgpu_shmem_size                   16384 # Size of shared memory per shader core (default 16kB)
-gpgpu_shmem_size                   49152 # Size of shared memory per shader core (default 16kB)
-gpgpu_shmem_size_PrefL1                16384 # Size of shared memory per shader core (default 16kB)
-gpgpu_shmem_size_PrefShared                16384 # Size of shared memory per shader core (default 16kB)
-gpgpu_shmem_num_banks                   32 # Number of banks in the shared memory in each shader core (default 16)
-gpgpu_shmem_limited_broadcast                    0 # Limit shared memory to do one broadcast per cycle (default on)
-gpgpu_shmem_warp_parts                    1 # Number of portions a warp is divided into for shared memory bank conflict check 
-gpgpu_warpdistro_shader                   -1 # Specify which shader core to collect the warp size distribution from
-gpgpu_warp_issue_shader                    0 # Specify which shader core to collect the warp issue distribution from
-gpgpu_local_mem_map                    1 # Mapping from local memory space address to simulated GPU physical address space (default = enabled)
-gpgpu_num_reg_banks                   16 # Number of register banks (default = 8)
-gpgpu_reg_bank_use_warp_id                    0 # Use warp ID in mapping registers to banks (default = off)
-gpgpu_operand_collector_num_units_sp                    6 # number of collector units (default = 4)
-gpgpu_operand_collector_num_units_sfu                    8 # number of collector units (default = 4)
-gpgpu_operand_collector_num_units_mem                    2 # number of collector units (default = 2)
-gpgpu_operand_collector_num_units_gen                    0 # number of collector units (default = 0)
-gpgpu_operand_collector_num_in_ports_sp                    2 # number of collector unit in ports (default = 1)
-gpgpu_operand_collector_num_in_ports_sfu                    1 # number of collector unit in ports (default = 1)
-gpgpu_operand_collector_num_in_ports_mem                    1 # number of collector unit in ports (default = 1)
-gpgpu_operand_collector_num_in_ports_gen                    0 # number of collector unit in ports (default = 0)
-gpgpu_operand_collector_num_out_ports_sp                    2 # number of collector unit in ports (default = 1)
-gpgpu_operand_collector_num_out_ports_sfu                    1 # number of collector unit in ports (default = 1)
-gpgpu_operand_collector_num_out_ports_mem                    1 # number of collector unit in ports (default = 1)
-gpgpu_operand_collector_num_out_ports_gen                    0 # number of collector unit in ports (default = 0)
-gpgpu_coalesce_arch                   13 # Coalescing arch (default = 13, anything else is off for now)
-gpgpu_num_sched_per_core                    2 # Number of warp schedulers per core
-gpgpu_max_insn_issue_per_warp                    1 # Max number of instructions that can be issued per warp in one cycle by scheduler
-gpgpu_simt_core_sim_order                    1 # Select the simulation order of cores in a cluster (0=Fix, 1=Round-Robin)
-gpgpu_pipeline_widths        2,1,1,2,1,1,2 # Pipeline widths ID_OC_SP,ID_OC_SFU,ID_OC_MEM,OC_EX_SP,OC_EX_SFU,OC_EX_MEM,EX_WB
-gpgpu_num_sp_units                     2 # Number of SP units (default=1)
-gpgpu_num_sfu_units                    1 # Number of SF units (default=1)
-gpgpu_num_mem_units                    1 # Number if ldst units (default=1) WARNING: not hooked up to anything
-gpgpu_scheduler                      gto # Scheduler configuration: < lrr | gto | two_level_active > If two_level_active:<num_active_warps>:<inner_prioritization>:<outer_prioritization>For complete list of prioritization values see shader.h enum scheduler_prioritization_typeDefault: gto
-gpgpu_dram_scheduler                    1 # 0 = fifo, 1 = FR-FCFS (defaul)
-gpgpu_dram_partition_queues              8:8:8:8 # i2$:$2d:d2$:$2i
-l2_ideal                               0 # Use a ideal L2 cache that always hit
-gpgpu_cache:dl2     64:128:8,L:B:m:W:L,A:32:4,4:0,32 # unified banked L2 data cache config  {<nsets>:<bsize>:<assoc>,<rep>:<wr>:<alloc>:<wr_alloc>,<mshr>:<N>:<merge>,<mq>}
-gpgpu_cache:dl2_texture_only                    0 # L2 cache used for texture only
-gpgpu_n_mem                            6 # number of memory modules (e.g. memory controllers) in gpu
-gpgpu_n_sub_partition_per_mchannel                    2 # number of memory subpartition in each memory module
-gpgpu_n_mem_per_ctrlr                    2 # number of memory chips per memory controller
-gpgpu_memlatency_stat                   14 # track and display latency statistics 0x2 enables MC, 0x4 enables queue logs
-gpgpu_frfcfs_dram_sched_queue_size                   16 # 0 = unlimited (default); # entries per chip
-gpgpu_dram_return_queue_size                  116 # 0 = unlimited (default); # entries per chip
-gpgpu_dram_buswidth                    4 # default = 4 bytes (8 bytes per cycle at DDR)
-gpgpu_dram_burst_length                    8 # Burst length of each DRAM request (default = 4 data bus cycle)
-dram_data_command_freq_ratio                    4 # Frequency ratio between DRAM data bus and command bus (default = 2 times, i.e. DDR)
-gpgpu_dram_timing_opt nbk=16:CCD=2:RRD=6:RCD=12:RAS=28:RP=12:RC=40: CL=12:WL=4:CDLR=5:WR=12:nbkgrp=4:CCDL=3:RTPL=2 # DRAM timing parameters = {nbk:tCCD:tRRD:tRCD:tRAS:tRP:tRC:CL:WL:tCDLR:tWR:nbkgrp:tCCDL:tRTPL}
-rop_latency                          120 # ROP queue latency (default 85)
-dram_latency                         100 # DRAM latency (default 30)
-gpgpu_mem_addr_mapping dramid@8;00000000.00000000.00000000.00000000.0000RRRR.RRRRRRRR.BBBCCCCB.CCSSSSSS # mapping memory address to dram model {dramid@<start bit>;<memory address map>}
-gpgpu_mem_addr_test                    0 # run sweep test to check address mapping for aliased address
-gpgpu_mem_address_mask                    1 # 0 = old addressing mask, 1 = new addressing mask, 2 = new add. mask + flipped bank sel and chip sel bits
-gpuwattch_xml_file  gpuwattch_gtx480.xml # GPUWattch XML file
-power_simulation_enabled                    1 # Turn on power simulator (1=On, 0=Off)
-power_per_cycle_dump                    0 # Dump detailed power output each cycle
-power_trace_enabled                    0 # produce a file for the power trace (1=On, 0=Off)
-power_trace_zlevel                     6 # Compression level of the power trace output log (0=no comp, 9=highest)
-steady_power_levels_enabled                    0 # produce a file for the steady power levels (1=On, 0=Off)
-steady_state_definition                  8:4 # allowed deviation:number of samples
-gpgpu_max_cycle                        0 # terminates gpu simulation early (0 = no limit)
-gpgpu_max_insn                         0 # terminates gpu simulation early (0 = no limit)
-gpgpu_max_cta                          0 # terminates gpu simulation early (0 = no limit)
-gpgpu_runtime_stat                   500 # display runtime statistics such as dram utilization {<freq>:<flag>}
-liveness_message_freq                    1 # Minimum number of seconds between simulation liveness messages (0 = always print)
-gpgpu_flush_l1_cache                    0 # Flush L1 cache at the end of each kernel call
-gpgpu_flush_l2_cache                    0 # Flush L2 cache at the end of each kernel call
-gpgpu_deadlock_detect                    1 # Stop the simulation at deadlock (1=on (default), 0=off)
-gpgpu_ptx_instruction_classification                    0 # if enabled will classify ptx instruction types per kernel (Max 255 kernels now)
-gpgpu_ptx_sim_mode                     0 # Select between Performance (default) or Functional simulation (1)
-gpgpu_clock_domains 700.0:700.0:700.0:924.0 # Clock Domain Frequencies in MhZ {<Core Clock>:<ICNT Clock>:<L2 Clock>:<DRAM Clock>}
-gpgpu_max_concurrent_kernel                    8 # maximum kernels that can run concurrently on GPU
-gpgpu_cflog_interval                    0 # Interval between each snapshot in control flow logger
-visualizer_enabled                     0 # Turn on visualizer output (1=On, 0=Off)
-visualizer_outputfile                 NULL # Specifies the output log file for visualizer
-visualizer_zlevel                      6 # Compression level of the visualizer output log (0=no comp, 9=highest)
-trace_enabled                          0 # Turn on traces
-trace_components                    none # comma seperated list of traces to enable. Complete list found in trace_streams.tup. Default none
-trace_sampling_core                    0 # The core which is printed using CORE_DPRINTF. Default 0
-trace_sampling_memory_partition                   -1 # The memory partition which is printed using MEMPART_DPRINTF. Default -1 (i.e. all)
-enable_ptx_file_line_stats                    1 # Turn on PTX source line statistic profiling. (1 = On)
-ptx_line_stats_filename gpgpu_inst_stats.txt # Output file for PTX source line statistics.
-save_embedded_ptx                      0 # saves ptx files embedded in binary as <n>.ptx
-keep                                   0 # keep intermediate files created by GPGPU-Sim when interfacing with external programs
-gpgpu_ptx_save_converted_ptxplus                    0 # Saved converted ptxplus to a file
-ptx_opcode_latency_int         4,13,4,5,145 # Opcode latencies for integers <ADD,MAX,MUL,MAD,DIV>Default 1,1,19,25,145
-ptx_opcode_latency_fp          4,13,4,5,39 # Opcode latencies for single precision floating points <ADD,MAX,MUL,MAD,DIV>Default 1,1,1,1,30
-ptx_opcode_latency_dp         8,19,8,8,330 # Opcode latencies for double precision floating points <ADD,MAX,MUL,MAD,DIV>Default 8,8,8,8,335
-ptx_opcode_initiation_int            1,2,2,1,8 # Opcode initiation intervals for integers <ADD,MAX,MUL,MAD,DIV>Default 1,1,4,4,32
-ptx_opcode_initiation_fp            1,2,1,1,4 # Opcode initiation intervals for single precision floating points <ADD,MAX,MUL,MAD,DIV>Default 1,1,1,1,5
-ptx_opcode_initiation_dp         8,16,8,8,130 # Opcode initiation intervals for double precision floating points <ADD,MAX,MUL,MAD,DIV>Default 8,8,8,8,130
DRAM Timing Options:
nbk                                    16 # number of banks
CCD                                     2 # column to column delay
RRD                                     6 # minimal delay between activation of rows in different banks
RCD                                    12 # row to column delay
RAS                                    28 # time needed to activate row
RP                                     12 # time needed to precharge (deactivate) row
RC                                     40 # row cycle time
CDLR                                    5 # switching from write to read (changes tWTR)
WR                                     12 # last data-in to row precharge
CL                                     12 # CAS latency
WL                                      4 # Write latency
nbkgrp                                  4 # number of bank groups
CCDL                                    3 # column to column delay between accesses to different bank groups
RTPL                                    2 # read to precharge delay between accesses to different bank groups
Total number of memory sub partition = 12
addr_dec_mask[CHIP]  = 0000000000000000 	high:64 low:0
addr_dec_mask[BK]    = 000000000000e100 	high:16 low:8
addr_dec_mask[ROW]   = 000000000fff0000 	high:28 low:16
addr_dec_mask[COL]   = 0000000000001eff 	high:13 low:0
addr_dec_mask[BURST] = 000000000000003f 	high:6 low:0
sub_partition_id_mask = 0000000000000100
GPGPU-Sim uArch: clock freqs: 700000000.000000:700000000.000000:700000000.000000:924000000.000000
GPGPU-Sim uArch: clock periods: 0.00000000142857142857:0.00000000142857142857:0.00000000142857142857:0.00000000108225108225
*** Initializing Memory Statistics ***
GPGPU-Sim uArch: interconnect node map (shaderID+MemID to icntID)
GPGPU-Sim uArch: Memory nodes ID start from index: 15
GPGPU-Sim uArch:    0   1   2   3   4
GPGPU-Sim uArch:    5   6   7   8   9
GPGPU-Sim uArch:   10  11  12  13  14
GPGPU-Sim uArch:   15  16  17  18  19
GPGPU-Sim uArch:   20  21  22  23  24
GPGPU-Sim uArch:   25  26
GPGPU-Sim uArch: interconnect node reverse map (icntID to shaderID+MemID)
GPGPU-Sim uArch: Memory nodes start from ID: 15
GPGPU-Sim uArch:    0   1   2   3   4
GPGPU-Sim uArch:    5   6   7   8   9
GPGPU-Sim uArch:   10  11  12  13  14
GPGPU-Sim uArch:   15  16  17  18  19
GPGPU-Sim uArch:   20  21  22  23  24
GPGPU-Sim uArch:   25  26
20268b35c91b7ed3425c558353ee2ace  /home/scratch/adwait/applications/benchmarks/CUDA/TRA/gpgpu_ptx_sim__TRA
GPGPU-Sim uArch: performance model initialization complete.
GPGPU-Sim PTX: __cudaRegisterFatBinary, fat_cubin_handle = 1, filename=transpose.cu
self exe links to: /home/scratch/adwait/applications/benchmarks/CUDA/TRA/gpgpu_ptx_sim__TRA
Running md5sum using "md5sum /home/scratch/adwait/applications/benchmarks/CUDA/TRA/gpgpu_ptx_sim__TRA "
Running cuobjdump using "$CUDA_INSTALL_PATH/bin/cuobjdump -ptx -elf -sass /home/scratch/adwait/applications/benchmarks/CUDA/TRA/gpgpu_ptx_sim__TRA > _cuobjdump_complete_output_eiQjKi"
Parsing file _cuobjdump_complete_output_eiQjKi
######### cuobjdump parser ########
## Adding new section ELF
Adding arch: sm_20
Adding identifier: transpose.cu
## Adding new section PTX
Adding ptx filename: _cuobjdump_1.ptx
Adding arch: sm_20
Adding identifier: transpose.cu
Done parsing!!!
GPGPU-Sim PTX: __cudaRegisterFunction _Z15transpose_naivePfS_ii : hostFun 0x0x4048d7, fat_cubin_handle = 1
GPGPU-Sim PTX: allocating shared region for "__cuda___cuda_local_var_42723_32_non_const_block24" from 0x0 to 0x440 (shared memory space)
GPGPU-Sim PTX: instruction assembly for function '_Z9transposePfS_ii'...   done.
GPGPU-Sim PTX: finding reconvergence points for '_Z9transposePfS_ii'...
GPGPU-Sim PTX: Finding dominators for '_Z9transposePfS_ii'...
GPGPU-Sim PTX: Finding immediate dominators for '_Z9transposePfS_ii'...
GPGPU-Sim PTX: Finding postdominators for '_Z9transposePfS_ii'...
GPGPU-Sim PTX: Finding immediate postdominators for '_Z9transposePfS_ii'...
GPGPU-Sim PTX: pre-decoding instructions for '_Z9transposePfS_ii'...
GPGPU-Sim PTX: reconvergence points for _Z9transposePfS_ii...
GPGPU-Sim PTX:  1 (potential) branch divergence @  PC=0x088 (_1.ptx:81) @%p1 bra $Lt_0_2306;
GPGPU-Sim PTX:    immediate post dominator      @  PC=0x108 (_1.ptx:99) mov.u64 %rd1, __cuda___cuda_local_var_42723_32_non_const_block24;
GPGPU-Sim PTX:  2 (potential) branch divergence @  PC=0x160 (_1.ptx:111) @%p2 bra $Lt_0_2818;
GPGPU-Sim PTX:    immediate post dominator      @  PC=0x1d8 (_1.ptx:129) exit;
GPGPU-Sim PTX: ... end of reconvergence points for _Z9transposePfS_ii
GPGPU-Sim PTX: ... done pre-decoding instructions for '_Z9transposePfS_ii'.
GPGPU-Sim PTX: instruction assembly for function '_Z15transpose_naivePfS_ii'...   done.
GPGPU-Sim PTX: finding reconvergence points for '_Z15transpose_naivePfS_ii'...
GPGPU-Sim PTX: Finding dominators for '_Z15transpose_naivePfS_ii'...
GPGPU-Sim PTX: Finding immediate dominators for '_Z15transpose_naivePfS_ii'...
GPGPU-Sim PTX: Finding postdominators for '_Z15transpose_naivePfS_ii'...
GPGPU-Sim PTX: Finding immediate postdominators for '_Z15transpose_naivePfS_ii'...
GPGPU-Sim PTX: pre-decoding instructions for '_Z15transpose_naivePfS_ii'...
GPGPU-Sim PTX: reconvergence points for _Z15transpose_naivePfS_ii...
GPGPU-Sim PTX:  1 (potential) branch divergence @  PC=0x278 (_1.ptx:164) @%p1 bra $Lt_1_1282;
GPGPU-Sim PTX:    immediate post dominator      @  PC=0x2f0 (_1.ptx:182) exit;
GPGPU-Sim PTX: ... end of reconvergence points for _Z15transpose_naivePfS_ii
GPGPU-Sim PTX: ... done pre-decoding instructions for '_Z15transpose_naivePfS_ii'.
GPGPU-Sim PTX: finished parsing EMBEDDED .ptx file _1.ptx
Adding _cuobjdump_1.ptx with cubin handle 1
GPGPU-Sim PTX: extracting embedded .ptx to temporary file "_ptx_ZitxKL"
Running: cat _ptx_ZitxKL | sed 's/.version 1.5/.version 1.4/' | sed 's/, texmode_independent//' | sed 's/\(\.extern \.const\[1\] .b8 \w\+\)\[\]/\1\[1\]/' | sed 's/const\[.\]/const\[0\]/g' > _ptx2_TprtQe
GPGPU-Sim PTX: generating ptxinfo using "$CUDA_INSTALL_PATH/bin/ptxas --gpu-name=sm_20 -v _ptx2_TprtQe --output-file  /dev/null 2> _ptx_ZitxKLinfo"
GPGPU-Sim PTX: Kernel '_Z15transpose_naivePfS_ii' : regs=8, lmem=0, smem=0, cmem=56
GPGPU-Sim PTX: Kernel '_Z9transposePfS_ii' : regs=9, lmem=0, smem=1088, cmem=56
GPGPU-Sim PTX: removing ptxinfo using "rm -f _ptx_ZitxKL _ptx2_TprtQe _ptx_ZitxKLinfo"
GPGPU-Sim PTX: loading globals with explicit initializers... 
GPGPU-Sim PTX: finished loading globals (0 bytes total).
GPGPU-Sim PTX: loading constants with explicit initializers...  done.
GPGPU-Sim PTX: __cudaRegisterFunction _Z9transposePfS_ii : hostFun 0x0x4047e7, fat_cubin_handle = 1

GPGPU-Sim PTX: cudaLaunch for 0x0x4048d7 (mode=performance simulation) on stream 0
GPGPU-Sim PTX: pushing kernel '_Z15transpose_naivePfS_ii' to stream 0, gridDim= (16,256,1) blockDim = (16,16,1) 
kernel '_Z15transpose_naivePfS_ii' transfer to GPU hardware scheduler
GPGPU-Sim uArch: Shader 1 bind to kernel 1 '_Z15transpose_naivePfS_ii'
GPGPU-Sim uArch: CTA/core = 6, limited by: threads
GPGPU-Sim uArch: core:  1, cta: 0 initialized @(1,0)
GPGPU-Sim uArch: Shader 2 bind to kernel 1 '_Z15transpose_naivePfS_ii'
GPGPU-Sim uArch: core:  2, cta: 0 initialized @(1,0)
GPGPU-Sim uArch: Shader 3 bind to kernel 1 '_Z15transpose_naivePfS_ii'
GPGPU-Sim uArch: core:  3, cta: 0 initialized @(1,0)
GPGPU-Sim uArch: Shader 4 bind to kernel 1 '_Z15transpose_naivePfS_ii'
GPGPU-Sim uArch: core:  4, cta: 0 initialized @(1,0)
GPGPU-Sim uArch: Shader 5 bind to kernel 1 '_Z15transpose_naivePfS_ii'
GPGPU-Sim uArch: core:  5, cta: 0 initialized @(1,0)
GPGPU-Sim uArch: Shader 6 bind to kernel 1 '_Z15transpose_naivePfS_ii'
GPGPU-Sim uArch: core:  6, cta: 0 initialized @(1,0)
GPGPU-Sim uArch: Shader 7 bind to kernel 1 '_Z15transpose_naivePfS_ii'
GPGPU-Sim uArch: core:  7, cta: 0 initialized @(1,0)
GPGPU-Sim uArch: Shader 8 bind to kernel 1 '_Z15transpose_naivePfS_ii'
GPGPU-Sim uArch: core:  8, cta: 0 initialized @(1,0)
GPGPU-Sim uArch: Shader 9 bind to kernel 1 '_Z15transpose_naivePfS_ii'
GPGPU-Sim uArch: core:  9, cta: 0 initialized @(1,0)
GPGPU-Sim uArch: Shader 10 bind to kernel 1 '_Z15transpose_naivePfS_ii'
GPGPU-Sim uArch: core: 10, cta: 0 initialized @(1,0)
GPGPU-Sim uArch: Shader 11 bind to kernel 1 '_Z15transpose_naivePfS_ii'
GPGPU-Sim uArch: core: 11, cta: 0 initialized @(1,0)
GPGPU-Sim uArch: Shader 12 bind to kernel 1 '_Z15transpose_naivePfS_ii'
GPGPU-Sim uArch: core: 12, cta: 0 initialized @(1,0)
GPGPU-Sim uArch: Shader 13 bind to kernel 1 '_Z15transpose_naivePfS_ii'
GPGPU-Sim uArch: core: 13, cta: 0 initialized @(1,0)
GPGPU-Sim uArch: Shader 14 bind to kernel 1 '_Z15transpose_naivePfS_ii'
GPGPU-Sim uArch: core: 14, cta: 0 initialized @(1,0)
GPGPU-Sim uArch: Shader 0 bind to kernel 1 '_Z15transpose_naivePfS_ii'
GPGPU-Sim uArch: core:  0, cta: 0 initialized @(1,0)
GPGPU-Sim uArch: core:  1, cta: 1 initialized @(2,0)
GPGPU-Sim uArch: core:  2, cta: 1 initialized @(2,0)
GPGPU-Sim uArch: core:  3, cta: 1 initialized @(2,0)
GPGPU-Sim uArch: core:  4, cta: 1 initialized @(2,0)
GPGPU-Sim uArch: core:  5, cta: 1 initialized @(2,0)
GPGPU-Sim uArch: core:  6, cta: 1 initialized @(2,0)
GPGPU-Sim uArch: core:  7, cta: 1 initialized @(2,0)
GPGPU-Sim uArch: core:  8, cta: 1 initialized @(2,0)
GPGPU-Sim uArch: core:  9, cta: 1 initialized @(2,0)
GPGPU-Sim uArch: core: 10, cta: 1 initialized @(2,0)
GPGPU-Sim uArch: core: 11, cta: 1 initialized @(2,0)
GPGPU-Sim uArch: core: 12, cta: 1 initialized @(2,0)
GPGPU-Sim uArch: core: 13, cta: 1 initialized @(2,0)
GPGPU-Sim uArch: core: 14, cta: 1 initialized @(2,0)
GPGPU-Sim uArch: core:  0, cta: 1 initialized @(2,0)
GPGPU-Sim uArch: core:  1, cta: 2 initialized @(3,0)
GPGPU-Sim uArch: core:  2, cta: 2 initialized @(3,0)
GPGPU-Sim uArch: core:  3, cta: 2 initialized @(3,0)
GPGPU-Sim uArch: core:  4, cta: 2 initialized @(3,0)
GPGPU-Sim uArch: core:  5, cta: 2 initialized @(3,0)
GPGPU-Sim uArch: core:  6, cta: 2 initialized @(3,0)
GPGPU-Sim uArch: core:  7, cta: 2 initialized @(3,0)
GPGPU-Sim uArch: core:  8, cta: 2 initialized @(3,0)
GPGPU-Sim uArch: core:  9, cta: 2 initialized @(3,0)
GPGPU-Sim uArch: core: 10, cta: 2 initialized @(3,0)
GPGPU-Sim uArch: core: 11, cta: 2 initialized @(3,0)
GPGPU-Sim uArch: core: 12, cta: 2 initialized @(3,0)
GPGPU-Sim uArch: core: 13, cta: 2 initialized @(3,0)
GPGPU-Sim uArch: core: 14, cta: 2 initialized @(3,0)
GPGPU-Sim uArch: core:  0, cta: 2 initialized @(3,0)
GPGPU-Sim uArch: core:  1, cta: 3 initialized @(4,0)
GPGPU-Sim uArch: core:  2, cta: 3 initialized @(4,0)
GPGPU-Sim uArch: core:  3, cta: 3 initialized @(4,0)
GPGPU-Sim uArch: core:  4, cta: 3 initialized @(4,0)
GPGPU-Sim uArch: core:  5, cta: 3 initialized @(4,0)
GPGPU-Sim uArch: core:  6, cta: 3 initialized @(4,0)
GPGPU-Sim uArch: core:  7, cta: 3 initialized @(4,0)
GPGPU-Sim uArch: core:  8, cta: 3 initialized @(4,0)
GPGPU-Sim uArch: core:  9, cta: 3 initialized @(4,0)
GPGPU-Sim uArch: core: 10, cta: 3 initialized @(4,0)
GPGPU-Sim uArch: core: 11, cta: 3 initialized @(4,0)
GPGPU-Sim uArch: core: 12, cta: 3 initialized @(4,0)
GPGPU-Sim uArch: core: 13, cta: 3 initialized @(4,0)
GPGPU-Sim uArch: core: 14, cta: 3 initialized @(4,0)
GPGPU-Sim uArch: core:  0, cta: 3 initialized @(4,0)
GPGPU-Sim uArch: core:  1, cta: 4 initialized @(5,0)
GPGPU-Sim uArch: core:  2, cta: 4 initialized @(5,0)
GPGPU-Sim uArch: core:  3, cta: 4 initialized @(5,0)
GPGPU-Sim uArch: core:  4, cta: 4 initialized @(5,0)
GPGPU-Sim uArch: core:  5, cta: 4 initialized @(5,0)
GPGPU-Sim uArch: core:  6, cta: 4 initialized @(5,0)
GPGPU-Sim uArch: core:  7, cta: 4 initialized @(5,0)
GPGPU-Sim uArch: core:  8, cta: 4 initialized @(5,0)
GPGPU-Sim uArch: core:  9, cta: 4 initialized @(5,0)
GPGPU-Sim uArch: core: 10, cta: 4 initialized @(5,0)
GPGPU-Sim uArch: core: 11, cta: 4 initialized @(5,0)
GPGPU-Sim uArch: core: 12, cta: 4 initialized @(5,0)
GPGPU-Sim uArch: core: 13, cta: 4 initialized @(5,0)
GPGPU-Sim uArch: core: 14, cta: 4 initialized @(5,0)
GPGPU-Sim uArch: core:  0, cta: 4 initialized @(5,0)
GPGPU-Sim uArch: core:  1, cta: 5 initialized @(6,0)
GPGPU-Sim uArch: core:  2, cta: 5 initialized @(6,0)
GPGPU-Sim uArch: core:  3, cta: 5 initialized @(6,0)
GPGPU-Sim uArch: core:  4, cta: 5 initialized @(6,0)
GPGPU-Sim uArch: core:  5, cta: 5 initialized @(6,0)
GPGPU-Sim uArch: core:  6, cta: 5 initialized @(6,0)
GPGPU-Sim uArch: core:  7, cta: 5 initialized @(6,0)
GPGPU-Sim uArch: core:  8, cta: 5 initialized @(6,0)
GPGPU-Sim uArch: core:  9, cta: 5 initialized @(6,0)
GPGPU-Sim uArch: core: 10, cta: 5 initialized @(6,0)
GPGPU-Sim uArch: core: 11, cta: 5 initialized @(6,0)
GPGPU-Sim uArch: core: 12, cta: 5 initialized @(6,0)
GPGPU-Sim uArch: core: 13, cta: 5 initialized @(6,0)
GPGPU-Sim uArch: core: 14, cta: 5 initialized @(6,0)
GPGPU-Sim uArch: core:  0, cta: 5 initialized @(6,0)
GPGPU-Sim uArch: cycles simulated: 500  inst.: 92000 (ipc=184.0) sim_rate=92000 (inst/sec) elapsed = 0:0:00:01 / Tue Apr 16 16:49:24 2019
GPGPU-Sim PTX: 100000 instructions simulated : ctaid=(0,5,0) tid=(15,9,0)
GPGPU-Sim PTX: 200000 instructions simulated : ctaid=(6,1,0) tid=(15,15,0)
GPGPU-Sim PTX: 300000 instructions simulated : ctaid=(1,1,0) tid=(15,11,0)
GPGPU-Sim PTX: 400000 instructions simulated : ctaid=(14,4,0) tid=(15,7,0)
GPGPU-Sim PTX: 500000 instructions simulated : ctaid=(7,2,0) tid=(15,7,0)
GPGPU-Sim uArch: cycles simulated: 1500  inst.: 521024 (ipc=347.3) sim_rate=260512 (inst/sec) elapsed = 0:0:00:02 / Tue Apr 16 16:49:25 2019
GPGPU-Sim PTX: 600000 instructions simulated : ctaid=(15,0,0) tid=(15,3,0)
GPGPU-Sim uArch: cycles simulated: 2500  inst.: 648768 (ipc=259.5) sim_rate=216256 (inst/sec) elapsed = 0:0:00:03 / Tue Apr 16 16:49:26 2019
GPGPU-Sim uArch: cycles simulated: 4000  inst.: 651680 (ipc=162.9) sim_rate=162920 (inst/sec) elapsed = 0:0:00:04 / Tue Apr 16 16:49:27 2019
GPGPU-Sim uArch: cycles simulated: 5500  inst.: 653280 (ipc=118.8) sim_rate=130656 (inst/sec) elapsed = 0:0:00:05 / Tue Apr 16 16:49:28 2019
GPGPU-Sim uArch: cycles simulated: 7000  inst.: 655008 (ipc=93.6) sim_rate=109168 (inst/sec) elapsed = 0:0:00:06 / Tue Apr 16 16:49:29 2019
GPGPU-Sim uArch: cycles simulated: 9000  inst.: 658336 (ipc=73.1) sim_rate=94048 (inst/sec) elapsed = 0:0:00:07 / Tue Apr 16 16:49:30 2019
GPGPU-Sim uArch: cycles simulated: 11000  inst.: 663136 (ipc=60.3) sim_rate=82892 (inst/sec) elapsed = 0:0:00:08 / Tue Apr 16 16:49:31 2019
GPGPU-Sim uArch: Shader 1 finished CTA #0 (12255,0), 5 CTAs running
GPGPU-Sim uArch: core:  1, cta: 0 initialized @(12256,0)
GPGPU-Sim uArch: cycles simulated: 13000  inst.: 673184 (ipc=51.8) sim_rate=74798 (inst/sec) elapsed = 0:0:00:09 / Tue Apr 16 16:49:32 2019
GPGPU-Sim PTX: 700000 instructions simulated : ctaid=(3,4,0) tid=(15,5,0)
GPGPU-Sim uArch: cycles simulated: 15500  inst.: 683872 (ipc=44.1) sim_rate=68387 (inst/sec) elapsed = 0:0:00:10 / Tue Apr 16 16:49:33 2019
GPGPU-Sim uArch: Shader 13 finished CTA #0 (15594,0), 5 CTAs running
GPGPU-Sim uArch: core: 13, cta: 0 initialized @(15595,0)
GPGPU-Sim uArch: Shader 9 finished CTA #0 (16461,0), 5 CTAs running
GPGPU-Sim uArch: core:  9, cta: 0 initialized @(16462,0)
GPGPU-Sim uArch: Shader 12 finished CTA #0 (17233,0), 5 CTAs running
GPGPU-Sim uArch: core: 12, cta: 0 initialized @(17234,0)
GPGPU-Sim uArch: Shader 5 finished CTA #0 (17444,0), 5 CTAs running
GPGPU-Sim uArch: core:  5, cta: 0 initialized @(17445,0)
GPGPU-Sim uArch: cycles simulated: 17500  inst.: 705568 (ipc=40.3) sim_rate=64142 (inst/sec) elapsed = 0:0:00:11 / Tue Apr 16 16:49:34 2019
GPGPU-Sim uArch: Shader 11 finished CTA #0 (18122,0), 5 CTAs running
GPGPU-Sim uArch: core: 11, cta: 0 initialized @(18123,0)
GPGPU-Sim uArch: Shader 8 finished CTA #0 (18304,0), 5 CTAs running
GPGPU-Sim uArch: core:  8, cta: 0 initialized @(18305,0)
GPGPU-Sim uArch: Shader 0 finished CTA #0 (18308,0), 5 CTAs running
GPGPU-Sim uArch: core:  0, cta: 0 initialized @(18309,0)
GPGPU-Sim uArch: Shader 14 finished CTA #0 (18631,0), 5 CTAs running
GPGPU-Sim uArch: core: 14, cta: 0 initialized @(18632,0)
GPGPU-Sim uArch: Shader 6 finished CTA #0 (18937,0), 5 CTAs running
GPGPU-Sim uArch: core:  6, cta: 0 initialized @(18938,0)
GPGPU-Sim uArch: Shader 2 finished CTA #0 (18941,0), 5 CTAs running
GPGPU-Sim uArch: core:  2, cta: 0 initialized @(18942,0)
GPGPU-Sim uArch: Shader 10 finished CTA #0 (18980,0), 5 CTAs running
GPGPU-Sim uArch: core: 10, cta: 0 initialized @(18981,0)
GPGPU-Sim uArch: Shader 7 finished CTA #0 (19298,0), 5 CTAs running
GPGPU-Sim uArch: core:  7, cta: 0 initialized @(19299,0)
GPGPU-Sim uArch: cycles simulated: 19500  inst.: 761056 (ipc=39.0) sim_rate=63421 (inst/sec) elapsed = 0:0:00:12 / Tue Apr 16 16:49:35 2019
GPGPU-Sim uArch: Shader 0 finished CTA #1 (19744,0), 5 CTAs running
GPGPU-Sim uArch: core:  0, cta: 1 initialized @(19745,0)
GPGPU-Sim PTX: 800000 instructions simulated : ctaid=(13,5,0) tid=(15,1,0)
GPGPU-Sim uArch: Shader 12 finished CTA #1 (20153,0), 5 CTAs running
GPGPU-Sim uArch: core: 12, cta: 1 initialized @(20154,0)
GPGPU-Sim uArch: Shader 3 finished CTA #0 (20204,0), 5 CTAs running
GPGPU-Sim uArch: core:  3, cta: 0 initialized @(20205,0)
GPGPU-Sim uArch: Shader 11 finished CTA #1 (20219,0), 5 CTAs running
GPGPU-Sim uArch: core: 11, cta: 1 initialized @(20220,0)
GPGPU-Sim uArch: Shader 11 finished CTA #2 (20460,0), 5 CTAs running
GPGPU-Sim uArch: core: 11, cta: 2 initialized @(20461,0)
GPGPU-Sim uArch: Shader 1 finished CTA #1 (20633,0), 5 CTAs running
GPGPU-Sim uArch: core:  1, cta: 1 initialized @(20634,0)
GPGPU-Sim uArch: Shader 6 finished CTA #1 (20950,0), 5 CTAs running
GPGPU-Sim uArch: core:  6, cta: 1 initialized @(20951,0)
GPGPU-Sim uArch: cycles simulated: 21000  inst.: 817088 (ipc=38.9) sim_rate=62852 (inst/sec) elapsed = 0:0:00:13 / Tue Apr 16 16:49:36 2019
GPGPU-Sim uArch: Shader 0 finished CTA #2 (21190,0), 5 CTAs running
GPGPU-Sim uArch: core:  0, cta: 2 initialized @(21191,0)
GPGPU-Sim uArch: Shader 4 finished CTA #0 (21247,0), 5 CTAs running
GPGPU-Sim uArch: core:  4, cta: 0 initialized @(21248,0)
GPGPU-Sim uArch: Shader 13 finished CTA #1 (21870,0), 5 CTAs running
GPGPU-Sim uArch: core: 13, cta: 1 initialized @(21871,0)
GPGPU-Sim uArch: Shader 10 finished CTA #1 (22009,0), 5 CTAs running
GPGPU-Sim uArch: core: 10, cta: 1 initialized @(22010,0)
GPGPU-Sim uArch: Shader 9 finished CTA #1 (22107,0), 5 CTAs running
GPGPU-Sim uArch: core:  9, cta: 1 initialized @(22108,0)
GPGPU-Sim uArch: Shader 14 finished CTA #1 (22265,0), 5 CTAs running
GPGPU-Sim uArch: core: 14, cta: 1 initialized @(22266,0)
GPGPU-Sim uArch: Shader 8 finished CTA #1 (22337,0), 5 CTAs running
GPGPU-Sim uArch: core:  8, cta: 1 initialized @(22338,0)
GPGPU-Sim uArch: Shader 8 finished CTA #2 (22516,0), 5 CTAs running
GPGPU-Sim uArch: core:  8, cta: 2 initialized @(22517,0)
GPGPU-Sim uArch: Shader 5 finished CTA #1 (22840,0), 5 CTAs running
GPGPU-Sim uArch: core:  5, cta: 1 initialized @(22841,0)
GPGPU-Sim PTX: 900000 instructions simulated : ctaid=(6,7,0) tid=(15,5,0)
GPGPU-Sim uArch: cycles simulated: 23000  inst.: 876128 (ipc=38.1) sim_rate=62580 (inst/sec) elapsed = 0:0:00:14 / Tue Apr 16 16:49:37 2019
GPGPU-Sim uArch: Shader 4 finished CTA #1 (23305,0), 5 CTAs running
GPGPU-Sim uArch: core:  4, cta: 1 initialized @(23306,0)
GPGPU-Sim uArch: Shader 3 finished CTA #1 (23353,0), 5 CTAs running
GPGPU-Sim uArch: core:  3, cta: 1 initialized @(23354,0)
GPGPU-Sim uArch: Shader 8 finished CTA #3 (23421,0), 5 CTAs running
GPGPU-Sim uArch: core:  8, cta: 3 initialized @(23422,0)
GPGPU-Sim uArch: Shader 7 finished CTA #1 (23583,0), 5 CTAs running
GPGPU-Sim uArch: core:  7, cta: 1 initialized @(23584,0)
GPGPU-Sim uArch: Shader 4 finished CTA #4 (23623,0), 5 CTAs running
GPGPU-Sim uArch: core:  4, cta: 4 initialized @(23624,0)
GPGPU-Sim uArch: Shader 2 finished CTA #1 (23633,0), 5 CTAs running
GPGPU-Sim uArch: core:  2, cta: 1 initialized @(23634,0)
GPGPU-Sim uArch: Shader 4 finished CTA #2 (23716,0), 5 CTAs running
GPGPU-Sim uArch: core:  4, cta: 2 initialized @(23717,0)
GPGPU-Sim uArch: Shader 0 finished CTA #3 (24221,0), 5 CTAs running
GPGPU-Sim uArch: core:  0, cta: 3 initialized @(24222,0)
GPGPU-Sim uArch: cycles simulated: 24500  inst.: 921600 (ipc=37.6) sim_rate=61440 (inst/sec) elapsed = 0:0:00:15 / Tue Apr 16 16:49:38 2019
GPGPU-Sim uArch: Shader 11 finished CTA #3 (24622,0), 5 CTAs running
GPGPU-Sim uArch: core: 11, cta: 3 initialized @(24623,0)
GPGPU-Sim uArch: Shader 2 finished CTA #2 (24805,0), 5 CTAs running
GPGPU-Sim uArch: core:  2, cta: 2 initialized @(24806,0)
GPGPU-Sim uArch: Shader 6 finished CTA #2 (25303,0), 5 CTAs running
GPGPU-Sim uArch: core:  6, cta: 2 initialized @(25304,0)
GPGPU-Sim uArch: Shader 8 finished CTA #4 (25382,0), 5 CTAs running
GPGPU-Sim uArch: core:  8, cta: 4 initialized @(25383,0)
GPGPU-Sim uArch: Shader 1 finished CTA #2 (25412,0), 5 CTAs running
GPGPU-Sim uArch: core:  1, cta: 2 initialized @(25413,0)
GPGPU-Sim uArch: Shader 6 finished CTA #3 (25442,0), 5 CTAs running
GPGPU-Sim uArch: core:  6, cta: 3 initialized @(25443,0)
GPGPU-Sim uArch: Shader 2 finished CTA #3 (25678,0), 5 CTAs running
GPGPU-Sim uArch: core:  2, cta: 3 initialized @(25679,0)
GPGPU-Sim uArch: Shader 14 finished CTA #2 (25697,0), 5 CTAs running
GPGPU-Sim uArch: core: 14, cta: 2 initialized @(25698,0)
GPGPU-Sim uArch: Shader 1 finished CTA #3 (25796,0), 5 CTAs running
GPGPU-Sim uArch: core:  1, cta: 3 initialized @(25797,0)
GPGPU-Sim PTX: 1000000 instructions simulated : ctaid=(0,3,0) tid=(15,15,0)
GPGPU-Sim uArch: Shader 2 finished CTA #4 (26132,0), 5 CTAs running
GPGPU-Sim uArch: core:  2, cta: 4 initialized @(26133,0)
GPGPU-Sim uArch: Shader 14 finished CTA #3 (26178,0), 5 CTAs running
GPGPU-Sim uArch: core: 14, cta: 3 initialized @(26179,0)
GPGPU-Sim uArch: cycles simulated: 26500  inst.: 988832 (ipc=37.3) sim_rate=61802 (inst/sec) elapsed = 0:0:00:16 / Tue Apr 16 16:49:39 2019
GPGPU-Sim uArch: Shader 1 finished CTA #4 (26577,0), 5 CTAs running
GPGPU-Sim uArch: core:  1, cta: 4 initialized @(26578,0)
GPGPU-Sim uArch: Shader 3 finished CTA #2 (26609,0), 5 CTAs running
GPGPU-Sim uArch: core:  3, cta: 2 initialized @(26610,0)
GPGPU-Sim uArch: Shader 13 finished CTA #2 (26652,0), 5 CTAs running
GPGPU-Sim uArch: core: 13, cta: 2 initialized @(26653,0)
GPGPU-Sim uArch: Shader 11 finished CTA #4 (26657,0), 5 CTAs running
GPGPU-Sim uArch: core: 11, cta: 4 initialized @(26658,0)
GPGPU-Sim uArch: Shader 3 finished CTA #3 (26693,0), 5 CTAs running
GPGPU-Sim uArch: core:  3, cta: 3 initialized @(26694,0)
GPGPU-Sim uArch: Shader 4 finished CTA #3 (27141,0), 5 CTAs running
GPGPU-Sim uArch: core:  4, cta: 3 initialized @(27142,0)
GPGPU-Sim uArch: Shader 3 finished CTA #4 (27260,0), 5 CTAs running
GPGPU-Sim uArch: core:  3, cta: 4 initialized @(27261,0)
GPGPU-Sim uArch: Shader 0 finished CTA #4 (27554,0), 5 CTAs running
GPGPU-Sim uArch: core:  0, cta: 4 initialized @(27555,0)
GPGPU-Sim uArch: Shader 5 finished CTA #2 (27597,0), 5 CTAs running
GPGPU-Sim uArch: core:  5, cta: 2 initialized @(27598,0)
GPGPU-Sim uArch: Shader 10 finished CTA #2 (27643,0), 5 CTAs running
GPGPU-Sim uArch: core: 10, cta: 2 initialized @(27644,0)
GPGPU-Sim uArch: Shader 7 finished CTA #2 (27805,0), 5 CTAs running
GPGPU-Sim uArch: core:  7, cta: 2 initialized @(27806,0)
GPGPU-Sim uArch: Shader 4 finished CTA #5 (27867,0), 5 CTAs running
GPGPU-Sim uArch: core:  4, cta: 5 initialized @(27868,0)
GPGPU-Sim PTX: 1100000 instructions simulated : ctaid=(14,8,0) tid=(15,9,0)
GPGPU-Sim uArch: Shader 9 finished CTA #2 (27934,0), 5 CTAs running
GPGPU-Sim uArch: core:  9, cta: 2 initialized @(27935,0)
GPGPU-Sim uArch: cycles simulated: 28000  inst.: 1076864 (ipc=38.5) sim_rate=63344 (inst/sec) elapsed = 0:0:00:17 / Tue Apr 16 16:49:40 2019
GPGPU-Sim uArch: Shader 13 finished CTA #3 (28017,0), 5 CTAs running
GPGPU-Sim uArch: core: 13, cta: 3 initialized @(28018,0)
GPGPU-Sim uArch: Shader 6 finished CTA #4 (28142,0), 5 CTAs running
GPGPU-Sim uArch: core:  6, cta: 4 initialized @(28143,0)
GPGPU-Sim uArch: Shader 5 finished CTA #3 (28395,0), 5 CTAs running
GPGPU-Sim uArch: core:  5, cta: 3 initialized @(28396,0)
GPGPU-Sim uArch: Shader 10 finished CTA #3 (28445,0), 5 CTAs running
GPGPU-Sim uArch: core: 10, cta: 3 initialized @(28446,0)
GPGPU-Sim uArch: Shader 9 finished CTA #3 (28475,0), 5 CTAs running
GPGPU-Sim uArch: core:  9, cta: 3 initialized @(28476,0)
GPGPU-Sim uArch: Shader 3 finished CTA #5 (28730,0), 5 CTAs running
GPGPU-Sim uArch: core:  3, cta: 5 initialized @(28731,0)
GPGPU-Sim uArch: Shader 12 finished CTA #2 (29129,0), 5 CTAs running
GPGPU-Sim uArch: core: 12, cta: 2 initialized @(29130,0)
GPGPU-Sim uArch: Shader 9 finished CTA #4 (29173,0), 5 CTAs running
GPGPU-Sim uArch: core:  9, cta: 4 initialized @(29174,0)
GPGPU-Sim uArch: Shader 8 finished CTA #5 (29183,0), 5 CTAs running
GPGPU-Sim uArch: core:  8, cta: 5 initialized @(29184,0)
GPGPU-Sim uArch: Shader 5 finished CTA #4 (29352,0), 5 CTAs running
GPGPU-Sim uArch: core:  5, cta: 4 initialized @(29353,0)
GPGPU-Sim uArch: cycles simulated: 29500  inst.: 1140032 (ipc=38.6) sim_rate=63335 (inst/sec) elapsed = 0:0:00:18 / Tue Apr 16 16:49:41 2019
GPGPU-Sim uArch: Shader 14 finished CTA #4 (29710,0), 5 CTAs running
GPGPU-Sim uArch: core: 14, cta: 4 initialized @(29711,0)
GPGPU-Sim uArch: Shader 6 finished CTA #5 (30300,0), 5 CTAs running
GPGPU-Sim uArch: core:  6, cta: 5 initialized @(30301,0)
GPGPU-Sim PTX: 1200000 instructions simulated : ctaid=(0,8,0) tid=(15,15,0)
GPGPU-Sim uArch: Shader 12 finished CTA #3 (30428,0), 5 CTAs running
GPGPU-Sim uArch: core: 12, cta: 3 initialized @(30429,0)
GPGPU-Sim uArch: Shader 2 finished CTA #5 (30527,0), 5 CTAs running
GPGPU-Sim uArch: core:  2, cta: 5 initialized @(30528,0)
GPGPU-Sim uArch: Shader 7 finished CTA #3 (30800,0), 5 CTAs running
GPGPU-Sim uArch: core:  7, cta: 3 initialized @(30801,0)
GPGPU-Sim uArch: Shader 10 finished CTA #4 (30830,0), 5 CTAs running
GPGPU-Sim uArch: core: 10, cta: 4 initialized @(30831,0)
GPGPU-Sim uArch: Shader 1 finished CTA #5 (31150,0), 5 CTAs running
GPGPU-Sim uArch: core:  1, cta: 5 initialized @(31151,0)
GPGPU-Sim uArch: cycles simulated: 31500  inst.: 1205312 (ipc=38.3) sim_rate=63437 (inst/sec) elapsed = 0:0:00:19 / Tue Apr 16 16:49:42 2019
GPGPU-Sim uArch: Shader 0 finished CTA #5 (31933,0), 5 CTAs running
GPGPU-Sim uArch: core:  0, cta: 5 initialized @(31934,0)
GPGPU-Sim uArch: Shader 4 finished CTA #0 (31977,0), 5 CTAs running
GPGPU-Sim uArch: core:  4, cta: 0 initialized @(31978,0)
GPGPU-Sim uArch: Shader 12 finished CTA #4 (32314,0), 5 CTAs running
GPGPU-Sim uArch: core: 12, cta: 4 initialized @(32315,0)
GPGPU-Sim uArch: Shader 14 finished CTA #5 (32938,0), 5 CTAs running
GPGPU-Sim uArch: core: 14, cta: 5 initialized @(32939,0)
GPGPU-Sim uArch: Shader 11 finished CTA #5 (33049,0), 5 CTAs running
GPGPU-Sim uArch: core: 11, cta: 5 initialized @(33050,0)
GPGPU-Sim PTX: 1300000 instructions simulated : ctaid=(11,7,0) tid=(15,3,0)
GPGPU-Sim uArch: Shader 13 finished CTA #4 (33374,0), 5 CTAs running
GPGPU-Sim uArch: core: 13, cta: 4 initialized @(33375,0)
GPGPU-Sim uArch: Shader 6 finished CTA #0 (33433,0), 5 CTAs running
GPGPU-Sim uArch: core:  6, cta: 0 initialized @(33434,0)
GPGPU-Sim uArch: cycles simulated: 33500  inst.: 1268224 (ipc=37.9) sim_rate=63411 (inst/sec) elapsed = 0:0:00:20 / Tue Apr 16 16:49:43 2019
GPGPU-Sim uArch: Shader 7 finished CTA #4 (33725,0), 5 CTAs running
GPGPU-Sim uArch: core:  7, cta: 4 initialized @(33726,0)
GPGPU-Sim uArch: Shader 3 finished CTA #0 (34069,0), 5 CTAs running
GPGPU-Sim uArch: core:  3, cta: 0 initialized @(34070,0)
GPGPU-Sim uArch: Shader 1 finished CTA #0 (34313,0), 5 CTAs running
GPGPU-Sim uArch: core:  1, cta: 0 initialized @(34314,0)
GPGPU-Sim uArch: Shader 9 finished CTA #5 (34580,0), 5 CTAs running
GPGPU-Sim uArch: core:  9, cta: 5 initialized @(34581,0)
GPGPU-Sim uArch: Shader 5 finished CTA #5 (34691,0), 5 CTAs running
GPGPU-Sim uArch: core:  5, cta: 5 initialized @(34692,0)
GPGPU-Sim uArch: Shader 10 finished CTA #5 (34843,0), 5 CTAs running
GPGPU-Sim uArch: core: 10, cta: 5 initialized @(34844,0)
GPGPU-Sim uArch: cycles simulated: 35000  inst.: 1340512 (ipc=38.3) sim_rate=63833 (inst/sec) elapsed = 0:0:00:21 / Tue Apr 16 16:49:44 2019
GPGPU-Sim uArch: Shader 2 finished CTA #0 (35223,0), 5 CTAs running
GPGPU-Sim uArch: core:  2, cta: 0 initialized @(35224,0)
GPGPU-Sim uArch: Shader 12 finished CTA #5 (35224,0), 5 CTAs running
GPGPU-Sim uArch: core: 12, cta: 5 initialized @(35225,0)
GPGPU-Sim PTX: 1400000 instructions simulated : ctaid=(1,10,0) tid=(15,7,0)
GPGPU-Sim uArch: Shader 14 finished CTA #0 (35613,0), 5 CTAs running
GPGPU-Sim uArch: core: 14, cta: 0 initialized @(35614,0)
GPGPU-Sim uArch: Shader 6 finished CTA #1 (36289,0), 5 CTAs running
GPGPU-Sim uArch: core:  6, cta: 1 initialized @(36290,0)
GPGPU-Sim uArch: cycles simulated: 36500  inst.: 1419616 (ipc=38.9) sim_rate=64528 (inst/sec) elapsed = 0:0:00:22 / Tue Apr 16 16:49:45 2019
GPGPU-Sim uArch: Shader 1 finished CTA #1 (36502,0), 5 CTAs running
GPGPU-Sim uArch: core:  1, cta: 1 initialized @(36503,0)
GPGPU-Sim uArch: Shader 7 finished CTA #5 (36509,0), 5 CTAs running
GPGPU-Sim uArch: core:  7, cta: 5 initialized @(36510,0)
GPGPU-Sim uArch: Shader 13 finished CTA #5 (36627,0), 5 CTAs running
GPGPU-Sim uArch: core: 13, cta: 5 initialized @(36628,0)
GPGPU-Sim uArch: Shader 6 finished CTA #2 (36949,0), 5 CTAs running
GPGPU-Sim uArch: core:  6, cta: 2 initialized @(36950,0)
GPGPU-Sim uArch: Shader 12 finished CTA #0 (37026,0), 5 CTAs running
GPGPU-Sim uArch: core: 12, cta: 0 initialized @(37027,0)
GPGPU-Sim uArch: Shader 2 finished CTA #1 (37040,0), 5 CTAs running
GPGPU-Sim uArch: core:  2, cta: 1 initialized @(37041,0)
GPGPU-Sim PTX: 1500000 instructions simulated : ctaid=(2,8,0) tid=(15,7,0)
GPGPU-Sim uArch: Shader 8 finished CTA #0 (37387,0), 5 CTAs running
GPGPU-Sim uArch: core:  8, cta: 0 initialized @(37388,0)
GPGPU-Sim uArch: Shader 1 finished CTA #2 (37684,0), 5 CTAs running
GPGPU-Sim uArch: core:  1, cta: 2 initialized @(37685,0)
GPGPU-Sim uArch: cycles simulated: 38500  inst.: 1470048 (ipc=38.2) sim_rate=63915 (inst/sec) elapsed = 0:0:00:23 / Tue Apr 16 16:49:46 2019
GPGPU-Sim uArch: Shader 0 finished CTA #0 (39168,0), 5 CTAs running
GPGPU-Sim uArch: core:  0, cta: 0 initialized @(39169,0)
GPGPU-Sim uArch: Shader 10 finished CTA #0 (39577,0), 5 CTAs running
GPGPU-Sim uArch: core: 10, cta: 0 initialized @(39578,0)
GPGPU-Sim uArch: Shader 10 finished CTA #1 (39621,0), 5 CTAs running
GPGPU-Sim uArch: core: 10, cta: 1 initialized @(39622,0)
GPGPU-Sim uArch: Shader 13 finished CTA #0 (39981,0), 5 CTAs running
GPGPU-Sim uArch: core: 13, cta: 0 initialized @(39982,0)
GPGPU-Sim uArch: Shader 12 finished CTA #1 (40094,0), 5 CTAs running
GPGPU-Sim uArch: core: 12, cta: 1 initialized @(40095,0)
GPGPU-Sim uArch: Shader 13 finished CTA #1 (40463,0), 5 CTAs running
GPGPU-Sim uArch: core: 13, cta: 1 initialized @(40464,0)
GPGPU-Sim uArch: Shader 9 finished CTA #0 (40481,0), 5 CTAs running
GPGPU-Sim uArch: core:  9, cta: 0 initialized @(40482,0)
GPGPU-Sim uArch: Shader 9 finished CTA #1 (40490,0), 5 CTAs running
GPGPU-Sim uArch: core:  9, cta: 1 initialized @(40491,0)
GPGPU-Sim uArch: cycles simulated: 40500  inst.: 1538432 (ipc=38.0) sim_rate=64101 (inst/sec) elapsed = 0:0:00:24 / Tue Apr 16 16:49:47 2019
GPGPU-Sim PTX: 1600000 instructions simulated : ctaid=(1,11,0) tid=(15,1,0)
GPGPU-Sim uArch: Shader 14 finished CTA #1 (40748,0), 5 CTAs running
GPGPU-Sim uArch: core: 14, cta: 1 initialized @(40749,0)
GPGPU-Sim uArch: Shader 2 finished CTA #2 (41061,0), 5 CTAs running
GPGPU-Sim uArch: core:  2, cta: 2 initialized @(41062,0)
GPGPU-Sim uArch: Shader 0 finished CTA #1 (41108,0), 5 CTAs running
GPGPU-Sim uArch: core:  0, cta: 1 initialized @(41109,0)
GPGPU-Sim uArch: Shader 0 finished CTA #2 (41342,0), 5 CTAs running
GPGPU-Sim uArch: core:  0, cta: 2 initialized @(41343,0)
GPGPU-Sim uArch: Shader 0 finished CTA #3 (41482,0), 5 CTAs running
GPGPU-Sim uArch: core:  0, cta: 3 initialized @(41483,0)
GPGPU-Sim uArch: Shader 4 finished CTA #1 (41669,0), 5 CTAs running
GPGPU-Sim uArch: core:  4, cta: 1 initialized @(41670,0)
GPGPU-Sim uArch: Shader 7 finished CTA #0 (41694,0), 5 CTAs running
GPGPU-Sim uArch: core:  7, cta: 0 initialized @(41695,0)
GPGPU-Sim uArch: cycles simulated: 42000  inst.: 1587776 (ipc=37.8) sim_rate=63511 (inst/sec) elapsed = 0:0:00:25 / Tue Apr 16 16:49:48 2019
GPGPU-Sim uArch: Shader 6 finished CTA #3 (42257,0), 5 CTAs running
GPGPU-Sim uArch: core:  6, cta: 3 initialized @(42258,0)
GPGPU-Sim uArch: Shader 11 finished CTA #0 (42303,0), 5 CTAs running
GPGPU-Sim uArch: core: 11, cta: 0 initialized @(42304,0)
GPGPU-Sim uArch: Shader 10 finished CTA #2 (42334,0), 5 CTAs running
GPGPU-Sim uArch: core: 10, cta: 2 initialized @(42335,0)
GPGPU-Sim uArch: Shader 11 finished CTA #1 (42559,0), 5 CTAs running
GPGPU-Sim uArch: core: 11, cta: 1 initialized @(42560,0)
GPGPU-Sim uArch: Shader 11 finished CTA #2 (42719,0), 5 CTAs running
GPGPU-Sim uArch: core: 11, cta: 2 initialized @(42720,0)
GPGPU-Sim uArch: Shader 3 finished CTA #1 (42733,0), 5 CTAs running
GPGPU-Sim uArch: core:  3, cta: 1 initialized @(42734,0)
GPGPU-Sim PTX: 1700000 instructions simulated : ctaid=(5,9,0) tid=(15,11,0)
GPGPU-Sim uArch: Shader 5 finished CTA #0 (42783,0), 5 CTAs running
GPGPU-Sim uArch: core:  5, cta: 0 initialized @(42784,0)
GPGPU-Sim uArch: Shader 5 finished CTA #1 (43110,0), 5 CTAs running
GPGPU-Sim uArch: core:  5, cta: 1 initialized @(43111,0)
GPGPU-Sim uArch: Shader 11 finished CTA #3 (43164,0), 5 CTAs running
GPGPU-Sim uArch: core: 11, cta: 3 initialized @(43165,0)
GPGPU-Sim uArch: Shader 8 finished CTA #1 (43190,0), 5 CTAs running
GPGPU-Sim uArch: core:  8, cta: 1 initialized @(43191,0)
GPGPU-Sim uArch: Shader 8 finished CTA #2 (43236,0), 5 CTAs running
GPGPU-Sim uArch: core:  8, cta: 2 initialized @(43237,0)
GPGPU-Sim uArch: Shader 14 finished CTA #2 (43371,0), 5 CTAs running
GPGPU-Sim uArch: core: 14, cta: 2 initialized @(43372,0)
GPGPU-Sim uArch: cycles simulated: 43500  inst.: 1672000 (ipc=38.4) sim_rate=64307 (inst/sec) elapsed = 0:0:00:26 / Tue Apr 16 16:49:49 2019
GPGPU-Sim uArch: Shader 0 finished CTA #4 (44198,0), 5 CTAs running
GPGPU-Sim uArch: core:  0, cta: 4 initialized @(44199,0)
GPGPU-Sim uArch: Shader 12 finished CTA #2 (44352,0), 5 CTAs running
GPGPU-Sim uArch: core: 12, cta: 2 initialized @(44353,0)
GPGPU-Sim uArch: Shader 8 finished CTA #3 (44903,0), 5 CTAs running
GPGPU-Sim uArch: core:  8, cta: 3 initialized @(44904,0)
GPGPU-Sim uArch: cycles simulated: 45500  inst.: 1719616 (ipc=37.8) sim_rate=63689 (inst/sec) elapsed = 0:0:00:27 / Tue Apr 16 16:49:50 2019
GPGPU-Sim uArch: Shader 3 finished CTA #2 (45504,0), 5 CTAs running
GPGPU-Sim uArch: core:  3, cta: 2 initialized @(45505,0)
GPGPU-Sim uArch: Shader 4 finished CTA #4 (45542,0), 5 CTAs running
GPGPU-Sim uArch: core:  4, cta: 4 initialized @(45543,0)
GPGPU-Sim uArch: Shader 5 finished CTA #2 (45577,0), 5 CTAs running
GPGPU-Sim uArch: core:  5, cta: 2 initialized @(45578,0)
GPGPU-Sim uArch: Shader 6 finished CTA #4 (45791,0), 5 CTAs running
GPGPU-Sim uArch: core:  6, cta: 4 initialized @(45792,0)
GPGPU-Sim uArch: Shader 7 finished CTA #1 (45844,0), 5 CTAs running
GPGPU-Sim uArch: core:  7, cta: 1 initialized @(45845,0)
GPGPU-Sim uArch: Shader 4 finished CTA #2 (45868,0), 5 CTAs running
GPGPU-Sim uArch: core:  4, cta: 2 initialized @(45869,0)
GPGPU-Sim uArch: Shader 9 finished CTA #2 (45888,0), 5 CTAs running
GPGPU-Sim uArch: core:  9, cta: 2 initialized @(45889,0)
GPGPU-Sim uArch: Shader 11 finished CTA #4 (45895,0), 5 CTAs running
GPGPU-Sim uArch: core: 11, cta: 4 initialized @(45896,0)
GPGPU-Sim PTX: 1800000 instructions simulated : ctaid=(4,14,0) tid=(15,13,0)
GPGPU-Sim uArch: Shader 13 finished CTA #2 (46143,0), 5 CTAs running
GPGPU-Sim uArch: core: 13, cta: 2 initialized @(46144,0)
GPGPU-Sim uArch: Shader 2 finished CTA #3 (46262,0), 5 CTAs running
GPGPU-Sim uArch: core:  2, cta: 3 initialized @(46263,0)
GPGPU-Sim uArch: cycles simulated: 47000  inst.: 1790528 (ipc=38.1) sim_rate=63947 (inst/sec) elapsed = 0:0:00:28 / Tue Apr 16 16:49:51 2019
GPGPU-Sim uArch: Shader 3 finished CTA #3 (47410,0), 5 CTAs running
GPGPU-Sim uArch: core:  3, cta: 3 initialized @(47411,0)
GPGPU-Sim uArch: Shader 0 finished CTA #5 (47633,0), 5 CTAs running
GPGPU-Sim uArch: core:  0, cta: 5 initialized @(47634,0)
GPGPU-Sim uArch: Shader 0 finished CTA #0 (47834,0), 5 CTAs running
GPGPU-Sim uArch: core:  0, cta: 0 initialized @(47835,0)
GPGPU-Sim PTX: 1900000 instructions simulated : ctaid=(11,14,0) tid=(15,1,0)
GPGPU-Sim uArch: Shader 14 finished CTA #3 (48050,0), 5 CTAs running
GPGPU-Sim uArch: core: 14, cta: 3 initialized @(48051,0)
GPGPU-Sim uArch: Shader 1 finished CTA #3 (48143,0), 5 CTAs running
GPGPU-Sim uArch: core:  1, cta: 3 initialized @(48144,0)
GPGPU-Sim uArch: Shader 10 finished CTA #3 (48213,0), 5 CTAs running
GPGPU-Sim uArch: core: 10, cta: 3 initialized @(48214,0)
GPGPU-Sim uArch: Shader 4 finished CTA #3 (48297,0), 5 CTAs running
GPGPU-Sim uArch: core:  4, cta: 3 initialized @(48298,0)
GPGPU-Sim uArch: Shader 5 finished CTA #3 (48346,0), 5 CTAs running
GPGPU-Sim uArch: core:  5, cta: 3 initialized @(48347,0)
GPGPU-Sim uArch: cycles simulated: 48500  inst.: 1900928 (ipc=39.2) sim_rate=65549 (inst/sec) elapsed = 0:0:00:29 / Tue Apr 16 16:49:52 2019
GPGPU-Sim uArch: Shader 7 finished CTA #2 (48572,0), 5 CTAs running
GPGPU-Sim uArch: core:  7, cta: 2 initialized @(48573,0)
GPGPU-Sim uArch: Shader 11 finished CTA #5 (48593,0), 5 CTAs running
GPGPU-Sim uArch: core: 11, cta: 5 initialized @(48594,0)
GPGPU-Sim uArch: Shader 13 finished CTA #3 (48704,0), 5 CTAs running
GPGPU-Sim uArch: core: 13, cta: 3 initialized @(48705,0)
GPGPU-Sim uArch: Shader 8 finished CTA #4 (49260,0), 5 CTAs running
GPGPU-Sim uArch: core:  8, cta: 4 initialized @(49261,0)
GPGPU-Sim uArch: Shader 9 finished CTA #3 (49521,0), 5 CTAs running
GPGPU-Sim uArch: core:  9, cta: 3 initialized @(49522,0)
GPGPU-Sim PTX: 2000000 instructions simulated : ctaid=(5,15,0) tid=(15,7,0)
GPGPU-Sim uArch: cycles simulated: 50000  inst.: 1951648 (ipc=39.0) sim_rate=65054 (inst/sec) elapsed = 0:0:00:30 / Tue Apr 16 16:49:53 2019
GPGPU-Sim uArch: Shader 10 finished CTA #4 (50053,0), 5 CTAs running
GPGPU-Sim uArch: core: 10, cta: 4 initialized @(50054,0)
GPGPU-Sim uArch: Shader 5 finished CTA #4 (50140,0), 5 CTAs running
GPGPU-Sim uArch: core:  5, cta: 4 initialized @(50141,0)
GPGPU-Sim uArch: Shader 6 finished CTA #5 (50146,0), 5 CTAs running
GPGPU-Sim uArch: core:  6, cta: 5 initialized @(50147,0)
GPGPU-Sim uArch: Shader 1 finished CTA #4 (50552,0), 5 CTAs running
GPGPU-Sim uArch: core:  1, cta: 4 initialized @(50553,0)
GPGPU-Sim uArch: Shader 7 finished CTA #3 (50639,0), 5 CTAs running
GPGPU-Sim uArch: core:  7, cta: 3 initialized @(50640,0)
GPGPU-Sim uArch: Shader 9 finished CTA #5 (51044,0), 5 CTAs running
GPGPU-Sim uArch: core:  9, cta: 5 initialized @(51045,0)
GPGPU-Sim uArch: Shader 4 finished CTA #5 (51050,0), 5 CTAs running
GPGPU-Sim uArch: core:  4, cta: 5 initialized @(51051,0)
GPGPU-Sim uArch: Shader 13 finished CTA #4 (51333,0), 5 CTAs running
GPGPU-Sim uArch: core: 13, cta: 4 initialized @(51334,0)
GPGPU-Sim uArch: Shader 12 finished CTA #3 (51343,0), 5 CTAs running
GPGPU-Sim uArch: core: 12, cta: 3 initialized @(51344,0)
GPGPU-Sim uArch: Shader 9 finished CTA #4 (51365,0), 5 CTAs running
GPGPU-Sim uArch: core:  9, cta: 4 initialized @(51366,0)
GPGPU-Sim uArch: Shader 10 finished CTA #5 (51432,0), 5 CTAs running
GPGPU-Sim uArch: core: 10, cta: 5 initialized @(51433,0)
GPGPU-Sim uArch: cycles simulated: 51500  inst.: 2028416 (ipc=39.4) sim_rate=65432 (inst/sec) elapsed = 0:0:00:31 / Tue Apr 16 16:49:54 2019
GPGPU-Sim uArch: Shader 1 finished CTA #5 (51579,0), 5 CTAs running
GPGPU-Sim uArch: core:  1, cta: 5 initialized @(51580,0)
GPGPU-Sim uArch: Shader 2 finished CTA #4 (51668,0), 5 CTAs running
GPGPU-Sim uArch: core:  2, cta: 4 initialized @(51669,0)
GPGPU-Sim PTX: 2100000 instructions simulated : ctaid=(2,16,0) tid=(15,9,0)
GPGPU-Sim uArch: Shader 3 finished CTA #4 (51766,0), 5 CTAs running
GPGPU-Sim uArch: core:  3, cta: 4 initialized @(51767,0)
GPGPU-Sim uArch: Shader 2 finished CTA #5 (52192,0), 5 CTAs running
GPGPU-Sim uArch: core:  2, cta: 5 initialized @(52193,0)
GPGPU-Sim uArch: Shader 3 finished CTA #5 (52241,0), 5 CTAs running
GPGPU-Sim uArch: core:  3, cta: 5 initialized @(52242,0)
GPGPU-Sim uArch: Shader 2 finished CTA #0 (52494,0), 5 CTAs running
GPGPU-Sim uArch: core:  2, cta: 0 initialized @(52495,0)
GPGPU-Sim uArch: Shader 14 finished CTA #4 (52504,0), 5 CTAs running
GPGPU-Sim uArch: core: 14, cta: 4 initialized @(52505,0)
GPGPU-Sim uArch: Shader 5 finished CTA #5 (52908,0), 5 CTAs running
GPGPU-Sim uArch: core:  5, cta: 5 initialized @(52909,0)
GPGPU-Sim uArch: cycles simulated: 53000  inst.: 2082240 (ipc=39.3) sim_rate=65070 (inst/sec) elapsed = 0:0:00:32 / Tue Apr 16 16:49:55 2019
GPGPU-Sim uArch: Shader 12 finished CTA #4 (53098,0), 5 CTAs running
GPGPU-Sim uArch: core: 12, cta: 4 initialized @(53099,0)
GPGPU-Sim uArch: Shader 12 finished CTA #5 (53226,0), 5 CTAs running
GPGPU-Sim uArch: core: 12, cta: 5 initialized @(53227,0)
GPGPU-Sim uArch: Shader 2 finished CTA #1 (53678,0), 5 CTAs running
GPGPU-Sim uArch: core:  2, cta: 1 initialized @(53679,0)
GPGPU-Sim uArch: Shader 8 finished CTA #5 (53762,0), 5 CTAs running
GPGPU-Sim uArch: core:  8, cta: 5 initialized @(53763,0)
GPGPU-Sim uArch: Shader 1 finished CTA #0 (54260,0), 5 CTAs running
GPGPU-Sim uArch: core:  1, cta: 0 initialized @(54261,0)
GPGPU-Sim PTX: 2200000 instructions simulated : ctaid=(13,14,0) tid=(15,7,0)
GPGPU-Sim uArch: Shader 6 finished CTA #0 (54493,0), 5 CTAs running
GPGPU-Sim uArch: core:  6, cta: 0 initialized @(54494,0)
GPGPU-Sim uArch: cycles simulated: 55000  inst.: 2156832 (ipc=39.2) sim_rate=65358 (inst/sec) elapsed = 0:0:00:33 / Tue Apr 16 16:49:56 2019
GPGPU-Sim uArch: Shader 3 finished CTA #0 (55107,0), 5 CTAs running
GPGPU-Sim uArch: core:  3, cta: 0 initialized @(55108,0)
GPGPU-Sim uArch: Shader 0 finished CTA #1 (55621,0), 5 CTAs running
GPGPU-Sim uArch: core:  0, cta: 1 initialized @(55622,0)
GPGPU-Sim uArch: Shader 11 finished CTA #0 (55631,0), 5 CTAs running
GPGPU-Sim uArch: core: 11, cta: 0 initialized @(55632,0)
GPGPU-Sim uArch: Shader 7 finished CTA #4 (55896,0), 5 CTAs running
GPGPU-Sim uArch: core:  7, cta: 4 initialized @(55897,0)
GPGPU-Sim uArch: Shader 7 finished CTA #5 (56093,0), 5 CTAs running
GPGPU-Sim uArch: core:  7, cta: 5 initialized @(56094,0)
GPGPU-Sim uArch: Shader 14 finished CTA #5 (56161,0), 5 CTAs running
GPGPU-Sim uArch: core: 14, cta: 5 initialized @(56162,0)
GPGPU-Sim uArch: Shader 2 finished CTA #2 (56223,0), 5 CTAs running
GPGPU-Sim uArch: core:  2, cta: 2 initialized @(56224,0)
GPGPU-Sim uArch: Shader 12 finished CTA #0 (56307,0), 5 CTAs running
GPGPU-Sim uArch: core: 12, cta: 0 initialized @(56308,0)
GPGPU-Sim uArch: cycles simulated: 56500  inst.: 2198112 (ipc=38.9) sim_rate=64650 (inst/sec) elapsed = 0:0:00:34 / Tue Apr 16 16:49:57 2019
GPGPU-Sim uArch: Shader 9 finished CTA #0 (56652,0), 5 CTAs running
GPGPU-Sim uArch: core:  9, cta: 0 initialized @(56653,0)
GPGPU-Sim PTX: 2300000 instructions simulated : ctaid=(7,14,0) tid=(15,7,0)
GPGPU-Sim uArch: Shader 10 finished CTA #0 (57559,0), 5 CTAs running
GPGPU-Sim uArch: core: 10, cta: 0 initialized @(57560,0)
GPGPU-Sim uArch: Shader 4 finished CTA #0 (57706,0), 5 CTAs running
GPGPU-Sim uArch: core:  4, cta: 0 initialized @(57707,0)
GPGPU-Sim uArch: cycles simulated: 58000  inst.: 2243712 (ipc=38.7) sim_rate=64106 (inst/sec) elapsed = 0:0:00:35 / Tue Apr 16 16:49:58 2019
GPGPU-Sim uArch: Shader 13 finished CTA #5 (58026,0), 5 CTAs running
GPGPU-Sim uArch: core: 13, cta: 5 initialized @(58027,0)
GPGPU-Sim uArch: Shader 3 finished CTA #1 (58032,0), 5 CTAs running
GPGPU-Sim uArch: core:  3, cta: 1 initialized @(58033,0)
GPGPU-Sim uArch: Shader 0 finished CTA #2 (58159,0), 5 CTAs running
GPGPU-Sim uArch: core:  0, cta: 2 initialized @(58160,0)
GPGPU-Sim uArch: Shader 14 finished CTA #0 (58253,0), 5 CTAs running
GPGPU-Sim uArch: core: 14, cta: 0 initialized @(58254,0)
GPGPU-Sim uArch: Shader 2 finished CTA #3 (58763,0), 5 CTAs running
GPGPU-Sim uArch: core:  2, cta: 3 initialized @(58764,0)
GPGPU-Sim uArch: Shader 1 finished CTA #1 (58781,0), 5 CTAs running
GPGPU-Sim uArch: core:  1, cta: 1 initialized @(58782,0)
GPGPU-Sim uArch: Shader 12 finished CTA #1 (58991,0), 5 CTAs running
GPGPU-Sim uArch: core: 12, cta: 1 initialized @(58992,0)
GPGPU-Sim uArch: Shader 8 finished CTA #0 (59282,0), 5 CTAs running
GPGPU-Sim uArch: core:  8, cta: 0 initialized @(59283,0)
GPGPU-Sim uArch: Shader 2 finished CTA #4 (59407,0), 5 CTAs running
GPGPU-Sim uArch: core:  2, cta: 4 initialized @(59408,0)
GPGPU-Sim uArch: cycles simulated: 59500  inst.: 2314912 (ipc=38.9) sim_rate=64303 (inst/sec) elapsed = 0:0:00:36 / Tue Apr 16 16:49:59 2019
GPGPU-Sim uArch: Shader 5 finished CTA #0 (59506,0), 5 CTAs running
GPGPU-Sim uArch: core:  5, cta: 0 initialized @(59507,0)
GPGPU-Sim uArch: Shader 2 finished CTA #5 (59601,0), 5 CTAs running
GPGPU-Sim uArch: core:  2, cta: 5 initialized @(59602,0)
GPGPU-Sim uArch: Shader 14 finished CTA #1 (59637,0), 5 CTAs running
GPGPU-Sim uArch: core: 14, cta: 1 initialized @(59638,0)
GPGPU-Sim PTX: 2400000 instructions simulated : ctaid=(11,16,0) tid=(15,3,0)
GPGPU-Sim uArch: Shader 6 finished CTA #1 (59921,0), 5 CTAs running
GPGPU-Sim uArch: core:  6, cta: 1 initialized @(59922,0)
GPGPU-Sim uArch: Shader 2 finished CTA #0 (60151,0), 5 CTAs running
GPGPU-Sim uArch: core:  2, cta: 0 initialized @(60152,0)
GPGPU-Sim uArch: Shader 0 finished CTA #3 (60193,0), 5 CTAs running
GPGPU-Sim uArch: core:  0, cta: 3 initialized @(60194,0)
GPGPU-Sim uArch: Shader 6 finished CTA #2 (60273,0), 5 CTAs running
GPGPU-Sim uArch: core:  6, cta: 2 initialized @(60274,0)
GPGPU-Sim uArch: Shader 1 finished CTA #2 (60326,0), 5 CTAs running
GPGPU-Sim uArch: core:  1, cta: 2 initialized @(60327,0)
GPGPU-Sim uArch: Shader 9 finished CTA #1 (60918,0), 5 CTAs running
GPGPU-Sim uArch: core:  9, cta: 1 initialized @(60919,0)
GPGPU-Sim uArch: Shader 10 finished CTA #1 (60959,0), 5 CTAs running
GPGPU-Sim uArch: core: 10, cta: 1 initialized @(60960,0)
GPGPU-Sim uArch: cycles simulated: 61000  inst.: 2386496 (ipc=39.1) sim_rate=64499 (inst/sec) elapsed = 0:0:00:37 / Tue Apr 16 16:50:00 2019
GPGPU-Sim uArch: Shader 13 finished CTA #0 (61149,0), 5 CTAs running
GPGPU-Sim uArch: core: 13, cta: 0 initialized @(61150,0)
GPGPU-Sim uArch: Shader 2 finished CTA #1 (61216,0), 5 CTAs running
GPGPU-Sim uArch: core:  2, cta: 1 initialized @(61217,0)
GPGPU-Sim uArch: Shader 7 finished CTA #0 (61333,0), 5 CTAs running
GPGPU-Sim uArch: core:  7, cta: 0 initialized @(61334,0)
GPGPU-Sim PTX: 2500000 instructions simulated : ctaid=(13,16,0) tid=(15,3,0)
GPGPU-Sim uArch: Shader 3 finished CTA #2 (61418,0), 5 CTAs running
GPGPU-Sim uArch: core:  3, cta: 2 initialized @(61419,0)
GPGPU-Sim uArch: Shader 11 finished CTA #1 (61479,0), 5 CTAs running
GPGPU-Sim uArch: core: 11, cta: 1 initialized @(61480,0)
GPGPU-Sim uArch: Shader 2 finished CTA #2 (61510,0), 5 CTAs running
GPGPU-Sim uArch: core:  2, cta: 2 initialized @(61511,0)
GPGPU-Sim uArch: Shader 14 finished CTA #2 (62006,0), 5 CTAs running
GPGPU-Sim uArch: core: 14, cta: 2 initialized @(62007,0)
GPGPU-Sim uArch: Shader 5 finished CTA #1 (62176,0), 5 CTAs running
GPGPU-Sim uArch: core:  5, cta: 1 initialized @(62177,0)
GPGPU-Sim uArch: Shader 12 finished CTA #2 (62288,0), 5 CTAs running
GPGPU-Sim uArch: core: 12, cta: 2 initialized @(62289,0)
GPGPU-Sim uArch: cycles simulated: 62500  inst.: 2497344 (ipc=40.0) sim_rate=65719 (inst/sec) elapsed = 0:0:00:38 / Tue Apr 16 16:50:01 2019
GPGPU-Sim uArch: Shader 0 finished CTA #4 (62902,0), 5 CTAs running
GPGPU-Sim uArch: core:  0, cta: 4 initialized @(62903,0)
GPGPU-Sim uArch: Shader 6 finished CTA #3 (62950,0), 5 CTAs running
GPGPU-Sim uArch: core:  6, cta: 3 initialized @(62951,0)
GPGPU-Sim PTX: 2600000 instructions simulated : ctaid=(4,14,0) tid=(15,7,0)
GPGPU-Sim uArch: Shader 8 finished CTA #1 (63330,0), 5 CTAs running
GPGPU-Sim uArch: core:  8, cta: 1 initialized @(63331,0)
GPGPU-Sim uArch: Shader 4 finished CTA #1 (63469,0), 5 CTAs running
GPGPU-Sim uArch: core:  4, cta: 1 initialized @(63470,0)
GPGPU-Sim uArch: Shader 10 finished CTA #2 (63568,0), 5 CTAs running
GPGPU-Sim uArch: core: 10, cta: 2 initialized @(63569,0)
GPGPU-Sim uArch: Shader 2 finished CTA #3 (63575,0), 5 CTAs running
GPGPU-Sim uArch: core:  2, cta: 3 initialized @(63576,0)
GPGPU-Sim uArch: Shader 13 finished CTA #1 (63999,0), 5 CTAs running
GPGPU-Sim uArch: core: 13, cta: 1 initialized @(64000,0)
GPGPU-Sim uArch: cycles simulated: 64000  inst.: 2578240 (ipc=40.3) sim_rate=66108 (inst/sec) elapsed = 0:0:00:39 / Tue Apr 16 16:50:02 2019
GPGPU-Sim uArch: Shader 5 finished CTA #2 (64125,0), 5 CTAs running
GPGPU-Sim uArch: core:  5, cta: 2 initialized @(64126,0)
GPGPU-Sim uArch: Shader 8 finished CTA #2 (64316,0), 5 CTAs running
GPGPU-Sim uArch: core:  8, cta: 2 initialized @(64317,0)
GPGPU-Sim uArch: Shader 3 finished CTA #3 (64382,0), 5 CTAs running
GPGPU-Sim uArch: core:  3, cta: 3 initialized @(64383,0)
GPGPU-Sim uArch: Shader 13 finished CTA #2 (64820,0), 5 CTAs running
GPGPU-Sim uArch: core: 13, cta: 2 initialized @(64821,0)
GPGPU-Sim uArch: Shader 12 finished CTA #3 (65057,0), 5 CTAs running
GPGPU-Sim uArch: core: 12, cta: 3 initialized @(65058,0)
GPGPU-Sim uArch: cycles simulated: 65500  inst.: 2618336 (ipc=40.0) sim_rate=65458 (inst/sec) elapsed = 0:0:00:40 / Tue Apr 16 16:50:03 2019
GPGPU-Sim PTX: 2700000 instructions simulated : ctaid=(12,16,0) tid=(15,7,0)
GPGPU-Sim uArch: Shader 7 finished CTA #1 (66234,0), 5 CTAs running
GPGPU-Sim uArch: core:  7, cta: 1 initialized @(66235,0)
GPGPU-Sim uArch: Shader 8 finished CTA #3 (66278,0), 5 CTAs running
GPGPU-Sim uArch: core:  8, cta: 3 initialized @(66279,0)
GPGPU-Sim uArch: Shader 0 finished CTA #5 (66531,0), 5 CTAs running
GPGPU-Sim uArch: core:  0, cta: 5 initialized @(66532,0)
GPGPU-Sim uArch: Shader 3 finished CTA #4 (66664,0), 5 CTAs running
GPGPU-Sim uArch: core:  3, cta: 4 initialized @(66665,0)
GPGPU-Sim uArch: Shader 9 finished CTA #2 (66666,0), 5 CTAs running
GPGPU-Sim uArch: core:  9, cta: 2 initialized @(66667,0)
GPGPU-Sim uArch: cycles simulated: 67000  inst.: 2663168 (ipc=39.7) sim_rate=64955 (inst/sec) elapsed = 0:0:00:41 / Tue Apr 16 16:50:04 2019
GPGPU-Sim uArch: Shader 4 finished CTA #4 (67195,0), 5 CTAs running
GPGPU-Sim uArch: core:  4, cta: 4 initialized @(67196,0)
GPGPU-Sim uArch: Shader 12 finished CTA #4 (67353,0), 5 CTAs running
GPGPU-Sim uArch: core: 12, cta: 4 initialized @(67354,0)
GPGPU-Sim uArch: Shader 5 finished CTA #3 (67593,0), 5 CTAs running
GPGPU-Sim uArch: core:  5, cta: 3 initialized @(67594,0)
GPGPU-Sim uArch: Shader 1 finished CTA #3 (67692,0), 5 CTAs running
GPGPU-Sim uArch: core:  1, cta: 3 initialized @(67693,0)
GPGPU-Sim uArch: Shader 10 finished CTA #3 (67780,0), 5 CTAs running
GPGPU-Sim uArch: core: 10, cta: 3 initialized @(67781,0)
GPGPU-Sim uArch: Shader 12 finished CTA #5 (67878,0), 5 CTAs running
GPGPU-Sim uArch: core: 12, cta: 5 initialized @(67879,0)
GPGPU-Sim uArch: Shader 11 finished CTA #2 (68081,0), 5 CTAs running
GPGPU-Sim uArch: core: 11, cta: 2 initialized @(68082,0)
GPGPU-Sim uArch: cycles simulated: 68500  inst.: 2701056 (ipc=39.4) sim_rate=64310 (inst/sec) elapsed = 0:0:00:42 / Tue Apr 16 16:50:05 2019
GPGPU-Sim uArch: Shader 7 finished CTA #2 (68513,0), 5 CTAs running
GPGPU-Sim uArch: core:  7, cta: 2 initialized @(68514,0)
GPGPU-Sim uArch: Shader 2 finished CTA #4 (68677,0), 5 CTAs running
GPGPU-Sim uArch: core:  2, cta: 4 initialized @(68678,0)
GPGPU-Sim uArch: Shader 4 finished CTA #2 (68709,0), 5 CTAs running
GPGPU-Sim uArch: core:  4, cta: 2 initialized @(68710,0)
GPGPU-Sim uArch: Shader 5 finished CTA #4 (68730,0), 5 CTAs running
GPGPU-Sim uArch: core:  5, cta: 4 initialized @(68731,0)
GPGPU-Sim PTX: 2800000 instructions simulated : ctaid=(1,21,0) tid=(15,11,0)
GPGPU-Sim uArch: Shader 11 finished CTA #3 (68947,0), 5 CTAs running
GPGPU-Sim uArch: core: 11, cta: 3 initialized @(68948,0)
GPGPU-Sim uArch: Shader 10 finished CTA #4 (68957,0), 5 CTAs running
GPGPU-Sim uArch: core: 10, cta: 4 initialized @(68958,0)
GPGPU-Sim uArch: Shader 1 finished CTA #4 (68985,0), 5 CTAs running
GPGPU-Sim uArch: core:  1, cta: 4 initialized @(68986,0)
GPGPU-Sim uArch: Shader 9 finished CTA #3 (69031,0), 5 CTAs running
GPGPU-Sim uArch: core:  9, cta: 3 initialized @(69032,0)
GPGPU-Sim uArch: Shader 11 finished CTA #4 (69067,0), 5 CTAs running
GPGPU-Sim uArch: core: 11, cta: 4 initialized @(69068,0)
GPGPU-Sim uArch: Shader 6 finished CTA #4 (69345,0), 5 CTAs running
GPGPU-Sim uArch: core:  6, cta: 4 initialized @(69346,0)
GPGPU-Sim uArch: Shader 13 finished CTA #3 (69777,0), 5 CTAs running
GPGPU-Sim uArch: core: 13, cta: 3 initialized @(69778,0)
GPGPU-Sim uArch: cycles simulated: 70000  inst.: 2785984 (ipc=39.8) sim_rate=64790 (inst/sec) elapsed = 0:0:00:43 / Tue Apr 16 16:50:06 2019
GPGPU-Sim uArch: Shader 7 finished CTA #3 (70524,0), 5 CTAs running
GPGPU-Sim uArch: core:  7, cta: 3 initialized @(70525,0)
GPGPU-Sim uArch: Shader 3 finished CTA #5 (70627,0), 5 CTAs running
GPGPU-Sim uArch: core:  3, cta: 5 initialized @(70628,0)
GPGPU-Sim uArch: Shader 9 finished CTA #5 (70763,0), 5 CTAs running
GPGPU-Sim uArch: core:  9, cta: 5 initialized @(70764,0)
GPGPU-Sim uArch: Shader 2 finished CTA #5 (70865,0), 5 CTAs running
GPGPU-Sim uArch: core:  2, cta: 5 initialized @(70866,0)
GPGPU-Sim uArch: Shader 9 finished CTA #4 (71085,0), 5 CTAs running
GPGPU-Sim uArch: core:  9, cta: 4 initialized @(71086,0)
GPGPU-Sim PTX: 2900000 instructions simulated : ctaid=(13,21,0) tid=(15,5,0)
GPGPU-Sim uArch: Shader 11 finished CTA #5 (71122,0), 5 CTAs running
GPGPU-Sim uArch: core: 11, cta: 5 initialized @(71123,0)
GPGPU-Sim uArch: Shader 14 finished CTA #3 (71203,0), 5 CTAs running
GPGPU-Sim uArch: core: 14, cta: 3 initialized @(71204,0)
GPGPU-Sim uArch: cycles simulated: 71500  inst.: 2834528 (ipc=39.6) sim_rate=64421 (inst/sec) elapsed = 0:0:00:44 / Tue Apr 16 16:50:07 2019
GPGPU-Sim uArch: Shader 5 finished CTA #5 (71564,0), 5 CTAs running
GPGPU-Sim uArch: core:  5, cta: 5 initialized @(71565,0)
GPGPU-Sim uArch: Shader 6 finished CTA #5 (71799,0), 5 CTAs running
GPGPU-Sim uArch: core:  6, cta: 5 initialized @(71800,0)
GPGPU-Sim uArch: Shader 4 finished CTA #3 (71883,0), 5 CTAs running
GPGPU-Sim uArch: core:  4, cta: 3 initialized @(71884,0)
GPGPU-Sim uArch: Shader 4 finished CTA #5 (71927,0), 5 CTAs running
GPGPU-Sim uArch: core:  4, cta: 5 initialized @(71928,0)
GPGPU-Sim uArch: Shader 0 finished CTA #0 (72014,0), 5 CTAs running
GPGPU-Sim uArch: core:  0, cta: 0 initialized @(72015,0)
GPGPU-Sim uArch: Shader 8 finished CTA #4 (72061,0), 5 CTAs running
GPGPU-Sim uArch: core:  8, cta: 4 initialized @(72062,0)
GPGPU-Sim uArch: Shader 14 finished CTA #4 (72110,0), 5 CTAs running
GPGPU-Sim uArch: core: 14, cta: 4 initialized @(72111,0)
GPGPU-Sim uArch: Shader 1 finished CTA #5 (72363,0), 5 CTAs running
GPGPU-Sim uArch: core:  1, cta: 5 initialized @(72364,0)
GPGPU-Sim uArch: Shader 12 finished CTA #0 (72450,0), 5 CTAs running
GPGPU-Sim uArch: core: 12, cta: 0 initialized @(72451,0)
GPGPU-Sim uArch: Shader 9 finished CTA #0 (72466,0), 5 CTAs running
GPGPU-Sim uArch: core:  9, cta: 0 initialized @(72467,0)
GPGPU-Sim uArch: cycles simulated: 73000  inst.: 2908256 (ipc=39.8) sim_rate=64627 (inst/sec) elapsed = 0:0:00:45 / Tue Apr 16 16:50:08 2019
GPGPU-Sim PTX: 3000000 instructions simulated : ctaid=(13,21,0) tid=(15,13,0)
GPGPU-Sim uArch: Shader 7 finished CTA #4 (73810,0), 5 CTAs running
GPGPU-Sim uArch: core:  7, cta: 4 initialized @(73811,0)
GPGPU-Sim uArch: Shader 13 finished CTA #4 (74066,0), 5 CTAs running
GPGPU-Sim uArch: core: 13, cta: 4 initialized @(74067,0)
GPGPU-Sim uArch: Shader 11 finished CTA #0 (74135,0), 5 CTAs running
GPGPU-Sim uArch: core: 11, cta: 0 initialized @(74136,0)
GPGPU-Sim uArch: Shader 10 finished CTA #5 (74140,0), 5 CTAs running
GPGPU-Sim uArch: core: 10, cta: 5 initialized @(74141,0)
GPGPU-Sim uArch: Shader 6 finished CTA #0 (74419,0), 5 CTAs running
GPGPU-Sim uArch: core:  6, cta: 0 initialized @(74420,0)
GPGPU-Sim uArch: cycles simulated: 74500  inst.: 2962688 (ipc=39.8) sim_rate=64406 (inst/sec) elapsed = 0:0:00:46 / Tue Apr 16 16:50:09 2019
GPGPU-Sim uArch: Shader 14 finished CTA #5 (74550,0), 5 CTAs running
GPGPU-Sim uArch: core: 14, cta: 5 initialized @(74551,0)
GPGPU-Sim uArch: Shader 1 finished CTA #0 (74707,0), 5 CTAs running
GPGPU-Sim uArch: core:  1, cta: 0 initialized @(74708,0)
GPGPU-Sim PTX: 3100000 instructions simulated : ctaid=(14,18,0) tid=(15,11,0)
GPGPU-Sim uArch: Shader 8 finished CTA #5 (75043,0), 5 CTAs running
GPGPU-Sim uArch: core:  8, cta: 5 initialized @(75044,0)
GPGPU-Sim uArch: Shader 2 finished CTA #0 (75362,0), 5 CTAs running
GPGPU-Sim uArch: core:  2, cta: 0 initialized @(75363,0)
GPGPU-Sim uArch: Shader 9 finished CTA #1 (75452,0), 5 CTAs running
GPGPU-Sim uArch: core:  9, cta: 1 initialized @(75453,0)
GPGPU-Sim uArch: Shader 4 finished CTA #0 (75480,0), 5 CTAs running
GPGPU-Sim uArch: core:  4, cta: 0 initialized @(75481,0)
GPGPU-Sim uArch: Shader 7 finished CTA #5 (75659,0), 5 CTAs running
GPGPU-Sim uArch: core:  7, cta: 5 initialized @(75660,0)
GPGPU-Sim uArch: Shader 10 finished CTA #0 (75966,0), 5 CTAs running
GPGPU-Sim uArch: core: 10, cta: 0 initialized @(75967,0)
GPGPU-Sim uArch: cycles simulated: 76000  inst.: 3047936 (ipc=40.1) sim_rate=64849 (inst/sec) elapsed = 0:0:00:47 / Tue Apr 16 16:50:10 2019
GPGPU-Sim uArch: Shader 11 finished CTA #1 (76013,0), 5 CTAs running
GPGPU-Sim uArch: core: 11, cta: 1 initialized @(76014,0)
GPGPU-Sim uArch: Shader 13 finished CTA #5 (76060,0), 5 CTAs running
GPGPU-Sim uArch: core: 13, cta: 5 initialized @(76061,0)
GPGPU-Sim uArch: Shader 12 finished CTA #1 (76176,0), 5 CTAs running
GPGPU-Sim uArch: core: 12, cta: 1 initialized @(76177,0)
GPGPU-Sim uArch: Shader 5 finished CTA #0 (76231,0), 5 CTAs running
GPGPU-Sim uArch: core:  5, cta: 0 initialized @(76232,0)
GPGPU-Sim uArch: Shader 3 finished CTA #0 (76847,0), 5 CTAs running
GPGPU-Sim uArch: core:  3, cta: 0 initialized @(76848,0)
GPGPU-Sim uArch: Shader 3 finished CTA #1 (76990,0), 5 CTAs running
GPGPU-Sim uArch: core:  3, cta: 1 initialized @(76991,0)
GPGPU-Sim uArch: cycles simulated: 77000  inst.: 3085440 (ipc=40.1) sim_rate=64280 (inst/sec) elapsed = 0:0:00:48 / Tue Apr 16 16:50:11 2019
GPGPU-Sim uArch: Shader 0 finished CTA #1 (77228,0), 5 CTAs running
GPGPU-Sim uArch: core:  0, cta: 1 initialized @(77229,0)
GPGPU-Sim uArch: Shader 3 finished CTA #2 (77378,0), 5 CTAs running
GPGPU-Sim uArch: core:  3, cta: 2 initialized @(77379,0)
GPGPU-Sim PTX: 3200000 instructions simulated : ctaid=(13,23,0) tid=(15,1,0)
GPGPU-Sim uArch: Shader 12 finished CTA #2 (77815,0), 5 CTAs running
GPGPU-Sim uArch: core: 12, cta: 2 initialized @(77816,0)
GPGPU-Sim uArch: Shader 13 finished CTA #0 (77898,0), 5 CTAs running
GPGPU-Sim uArch: core: 13, cta: 0 initialized @(77899,0)
GPGPU-Sim uArch: Shader 3 finished CTA #3 (78215,0), 5 CTAs running
GPGPU-Sim uArch: core:  3, cta: 3 initialized @(78216,0)
GPGPU-Sim uArch: cycles simulated: 78500  inst.: 3139392 (ipc=40.0) sim_rate=64069 (inst/sec) elapsed = 0:0:00:49 / Tue Apr 16 16:50:12 2019
GPGPU-Sim uArch: Shader 9 finished CTA #2 (78604,0), 5 CTAs running
GPGPU-Sim uArch: core:  9, cta: 2 initialized @(78605,0)
GPGPU-Sim uArch: Shader 1 finished CTA #1 (78619,0), 5 CTAs running
GPGPU-Sim uArch: core:  1, cta: 1 initialized @(78620,0)
GPGPU-Sim uArch: Shader 1 finished CTA #2 (78800,0), 5 CTAs running
GPGPU-Sim uArch: core:  1, cta: 2 initialized @(78801,0)
GPGPU-Sim uArch: Shader 8 finished CTA #0 (79291,0), 5 CTAs running
GPGPU-Sim uArch: core:  8, cta: 0 initialized @(79292,0)
GPGPU-Sim uArch: Shader 14 finished CTA #0 (79440,0), 5 CTAs running
GPGPU-Sim uArch: core: 14, cta: 0 initialized @(79441,0)
GPGPU-Sim uArch: Shader 2 finished CTA #1 (79861,0), 5 CTAs running
GPGPU-Sim uArch: core:  2, cta: 1 initialized @(79862,0)
GPGPU-Sim PTX: 3300000 instructions simulated : ctaid=(10,20,0) tid=(15,11,0)
GPGPU-Sim uArch: cycles simulated: 80000  inst.: 3205248 (ipc=40.1) sim_rate=64104 (inst/sec) elapsed = 0:0:00:50 / Tue Apr 16 16:50:13 2019
GPGPU-Sim uArch: Shader 8 finished CTA #1 (80082,0), 5 CTAs running
GPGPU-Sim uArch: core:  8, cta: 1 initialized @(80083,0)
GPGPU-Sim uArch: Shader 7 finished CTA #0 (81303,0), 5 CTAs running
GPGPU-Sim uArch: core:  7, cta: 0 initialized @(81304,0)
GPGPU-Sim uArch: Shader 4 finished CTA #1 (81314,0), 5 CTAs running
GPGPU-Sim uArch: core:  4, cta: 1 initialized @(81315,0)
GPGPU-Sim uArch: Shader 5 finished CTA #1 (81350,0), 5 CTAs running
GPGPU-Sim uArch: core:  5, cta: 1 initialized @(81351,0)
GPGPU-Sim uArch: cycles simulated: 81500  inst.: 3243936 (ipc=39.8) sim_rate=63606 (inst/sec) elapsed = 0:0:00:51 / Tue Apr 16 16:50:14 2019
GPGPU-Sim uArch: Shader 10 finished CTA #1 (81819,0), 5 CTAs running
GPGPU-Sim uArch: core: 10, cta: 1 initialized @(81820,0)
GPGPU-Sim uArch: Shader 0 finished CTA #2 (81901,0), 5 CTAs running
GPGPU-Sim uArch: core:  0, cta: 2 initialized @(81902,0)
GPGPU-Sim uArch: Shader 0 finished CTA #3 (82085,0), 5 CTAs running
GPGPU-Sim uArch: core:  0, cta: 3 initialized @(82086,0)
GPGPU-Sim uArch: Shader 3 finished CTA #4 (82258,0), 5 CTAs running
GPGPU-Sim uArch: core:  3, cta: 4 initialized @(82259,0)
GPGPU-Sim uArch: Shader 6 finished CTA #1 (82339,0), 5 CTAs running
GPGPU-Sim uArch: core:  6, cta: 1 initialized @(82340,0)
GPGPU-Sim uArch: Shader 11 finished CTA #2 (82736,0), 5 CTAs running
GPGPU-Sim uArch: core: 11, cta: 2 initialized @(82737,0)
GPGPU-Sim uArch: Shader 0 finished CTA #4 (82927,0), 5 CTAs running
GPGPU-Sim uArch: core:  0, cta: 4 initialized @(82928,0)
GPGPU-Sim uArch: cycles simulated: 83000  inst.: 3296512 (ipc=39.7) sim_rate=63394 (inst/sec) elapsed = 0:0:00:52 / Tue Apr 16 16:50:15 2019
GPGPU-Sim uArch: Shader 8 finished CTA #2 (83159,0), 5 CTAs running
GPGPU-Sim uArch: core:  8, cta: 2 initialized @(83160,0)
GPGPU-Sim PTX: 3400000 instructions simulated : ctaid=(7,24,0) tid=(15,1,0)
GPGPU-Sim uArch: Shader 2 finished CTA #2 (83561,0), 5 CTAs running
GPGPU-Sim uArch: core:  2, cta: 2 initialized @(83562,0)
GPGPU-Sim uArch: Shader 2 finished CTA #3 (83763,0), 5 CTAs running
GPGPU-Sim uArch: core:  2, cta: 3 initialized @(83764,0)
GPGPU-Sim uArch: Shader 13 finished CTA #1 (84180,0), 5 CTAs running
GPGPU-Sim uArch: core: 13, cta: 1 initialized @(84181,0)
GPGPU-Sim uArch: Shader 4 finished CTA #4 (84290,0), 5 CTAs running
GPGPU-Sim uArch: core:  4, cta: 4 initialized @(84291,0)
GPGPU-Sim uArch: Shader 12 finished CTA #3 (84639,0), 5 CTAs running
GPGPU-Sim uArch: core: 12, cta: 3 initialized @(84640,0)
GPGPU-Sim uArch: Shader 6 finished CTA #2 (84866,0), 5 CTAs running
GPGPU-Sim uArch: core:  6, cta: 2 initialized @(84867,0)
GPGPU-Sim uArch: cycles simulated: 85000  inst.: 3365760 (ipc=39.6) sim_rate=63504 (inst/sec) elapsed = 0:0:00:53 / Tue Apr 16 16:50:16 2019
GPGPU-Sim uArch: Shader 0 finished CTA #5 (85265,0), 5 CTAs running
GPGPU-Sim uArch: core:  0, cta: 5 initialized @(85266,0)
GPGPU-Sim uArch: Shader 14 finished CTA #1 (85290,0), 5 CTAs running
GPGPU-Sim uArch: core: 14, cta: 1 initialized @(85291,0)
GPGPU-Sim uArch: Shader 8 finished CTA #3 (85560,0), 5 CTAs running
GPGPU-Sim uArch: core:  8, cta: 3 initialized @(85561,0)
GPGPU-Sim uArch: Shader 14 finished CTA #2 (85709,0), 5 CTAs running
GPGPU-Sim uArch: core: 14, cta: 2 initialized @(85710,0)
GPGPU-Sim uArch: Shader 5 finished CTA #2 (85804,0), 5 CTAs running
GPGPU-Sim uArch: core:  5, cta: 2 initialized @(85805,0)
GPGPU-Sim uArch: Shader 6 finished CTA #3 (85833,0), 5 CTAs running
GPGPU-Sim uArch: core:  6, cta: 3 initialized @(85834,0)
GPGPU-Sim PTX: 3500000 instructions simulated : ctaid=(15,25,0) tid=(15,1,0)
GPGPU-Sim uArch: Shader 13 finished CTA #2 (85942,0), 5 CTAs running
GPGPU-Sim uArch: core: 13, cta: 2 initialized @(85943,0)
GPGPU-Sim uArch: Shader 2 finished CTA #4 (86193,0), 5 CTAs running
GPGPU-Sim uArch: core:  2, cta: 4 initialized @(86194,0)
GPGPU-Sim uArch: cycles simulated: 86500  inst.: 3413024 (ipc=39.5) sim_rate=63204 (inst/sec) elapsed = 0:0:00:54 / Tue Apr 16 16:50:17 2019
GPGPU-Sim uArch: Shader 1 finished CTA #3 (86651,0), 5 CTAs running
GPGPU-Sim uArch: core:  1, cta: 3 initialized @(86652,0)
GPGPU-Sim uArch: Shader 7 finished CTA #1 (86659,0), 5 CTAs running
GPGPU-Sim uArch: core:  7, cta: 1 initialized @(86660,0)
GPGPU-Sim uArch: Shader 3 finished CTA #5 (86701,0), 5 CTAs running
GPGPU-Sim uArch: core:  3, cta: 5 initialized @(86702,0)
GPGPU-Sim uArch: Shader 10 finished CTA #2 (87083,0), 5 CTAs running
GPGPU-Sim uArch: core: 10, cta: 2 initialized @(87084,0)
GPGPU-Sim uArch: Shader 9 finished CTA #3 (87853,0), 5 CTAs running
GPGPU-Sim uArch: core:  9, cta: 3 initialized @(87854,0)
GPGPU-Sim uArch: cycles simulated: 88000  inst.: 3466336 (ipc=39.4) sim_rate=63024 (inst/sec) elapsed = 0:0:00:55 / Tue Apr 16 16:50:18 2019
GPGPU-Sim uArch: Shader 0 finished CTA #0 (88145,0), 5 CTAs running
GPGPU-Sim uArch: core:  0, cta: 0 initialized @(88146,0)
GPGPU-Sim uArch: Shader 8 finished CTA #4 (88183,0), 5 CTAs running
GPGPU-Sim uArch: core:  8, cta: 4 initialized @(88184,0)
GPGPU-Sim uArch: Shader 6 finished CTA #4 (88398,0), 5 CTAs running
GPGPU-Sim uArch: core:  6, cta: 4 initialized @(88399,0)
GPGPU-Sim PTX: 3600000 instructions simulated : ctaid=(8,22,0) tid=(15,11,0)
GPGPU-Sim uArch: Shader 4 finished CTA #2 (89156,0), 5 CTAs running
GPGPU-Sim uArch: core:  4, cta: 2 initialized @(89157,0)
GPGPU-Sim uArch: Shader 14 finished CTA #3 (89221,0), 5 CTAs running
GPGPU-Sim uArch: core: 14, cta: 3 initialized @(89222,0)
GPGPU-Sim uArch: Shader 13 finished CTA #3 (89344,0), 5 CTAs running
GPGPU-Sim uArch: core: 13, cta: 3 initialized @(89345,0)
GPGPU-Sim uArch: Shader 1 finished CTA #4 (89388,0), 5 CTAs running
GPGPU-Sim uArch: core:  1, cta: 4 initialized @(89389,0)
GPGPU-Sim uArch: Shader 7 finished CTA #2 (89470,0), 5 CTAs running
GPGPU-Sim uArch: core:  7, cta: 2 initialized @(89471,0)
GPGPU-Sim uArch: cycles simulated: 89500  inst.: 3543552 (ipc=39.6) sim_rate=63277 (inst/sec) elapsed = 0:0:00:56 / Tue Apr 16 16:50:19 2019
GPGPU-Sim uArch: Shader 12 finished CTA #4 (89551,0), 5 CTAs running
[...]
dq_lat_table:0 	0 	0 	0 	0 	0 	0 	0 	0 	0 	0 	0 	0 	0 	0 	0 	0 	0 	0 	0 	0 	0 	0 	0 	0 	0 	0 	0 	0 	0 	0 	0 	
mf_lat_table:0 	0 	0 	0 	0 	0 	0 	68621 	399431 	675730 	292301 	1 	0 	0 	0 	0 	0 	0 	0 	0 	0 	0 	0 	0 	0 	0 	0 	0 	0 	0 	0 	0 	
icnt2mem_lat_table:0 	0 	0 	38139 	19190 	266693 	130671 	126194 	400749 	445194 	9344 	0 	0 	0 	0 	0 	0 	0 	0 	0 	0 	0 	0 	0 	
icnt2sh_lat_table:0 	0 	0 	99019 	105853 	45723 	5785 	56 	0 	0 	0 	532 	1099 	2738 	9684 	20133 	38054 	75889 	158848 	278524 	594147 	0 	0 	0 	
mf_lat_pw_table:0 	0 	0 	0 	0 	0 	0 	1 	87 	3903 	197 	0 	0 	0 	0 	0 	0 	0 	0 	0 	0 	0 	0 	0 	0 	0 	0 	0 	0 	0 	0 	0 	
maximum concurrent accesses to same row:
dram[0]:        32        32        32        32        32        32        32        32        32        32        32        32        32        32        32        32 
dram[1]:        32        32        32        32        32        32        32        32        31        32        32        32        32        32        32        32 
dram[2]:        32        32        32        32        32        32        32        32        32        32        32        32        32        32        32        32 
dram[3]:        32        32        32        32        32        32        32        32        32        32        32        32        32        32        32        32 
dram[4]:        29        32        32        32        32        32        32        32        32        32        32        32        32        32        32        32 
dram[5]:        32        32        32        32        32        32        32        32        32        32        32        32        32        32        32        32 
maximum service time to same row:
dram[0]:     26318     29572     25975     29563     27188     27770     27233     31457     25720     27790     25428     27550     24675     30069     26191     30060 
dram[1]:     25689     41193     25673     41184     25533     43823     24621     45753     24707     38873     25262     25979     25072     35754     26092     41202 
dram[2]:     28981     26192     29567     25984     32441     25931     31459     26349     27791     27681     27553     28224     30072     26197     30063     23437 
dram[3]:     41196     25689     41187     25672     43840     25669     45753     24131     43309     25988     30115     26083     35750     26231     41204     26082 
dram[4]:     26183     29569     25984     29560     25985     27771     27691     31448     27691     27778     25596     28024     24659     30066     26387     30057 
dram[5]:     25620     41190     25687     41181     26170     45794     24714     45747     24910     43301     25341     25985     24800     36354     26419     41199 
average row accesses per activate:
dram[0]:  2.182692  2.186318  2.169508  2.177986  2.172685  2.184263  2.198039  2.190586  2.158597  2.170134  2.195295  2.208659  2.216553  2.205363  2.206961  2.200084 
dram[1]:  2.163025  2.172843  2.166777  2.181452  2.175396  2.173629  2.173639  2.205325  2.178087  2.199427  2.172828  2.196864  2.198524  2.212624  2.200519  2.199247 
dram[2]:  2.184510  2.171613  2.176836  2.169021  2.180946  2.189423  2.195494  2.178063  2.163308  2.156029  2.207319  2.201046  2.203386  2.207015  2.197555  2.218460 
dram[3]:  2.179436  2.169294  2.183636  2.165158  2.179580  2.175573  2.203501  2.172472  2.194230  2.181512  2.191844  2.176149  2.214937  2.202686  2.203153  2.200125 
dram[4]:  2.177627  2.182373  2.169575  2.179271  2.174993  2.183796  2.185462  2.199345  2.168133  2.170408  2.192681  2.200589  2.207187  2.205026  2.214033  2.204264 
dram[5]:  2.164249  2.184874  2.162479  2.183972  2.172433  2.186171  2.175239  2.193453  2.171618  2.197996  2.178301  2.188396  2.183963  2.211948  2.192990  2.192199 
average row locality = 2148438/982650 = 2.186372
number of total memory accesses made:
dram[0]:         0         0         0         0         0         0         0         0         0         0         0         0         0         0         0         0 
dram[1]:         0         0         0         0         0         0         0         0         0         0         0         0         0         0         0         0 
dram[2]:         0         0         0         0         0         0         0         0         0         0         0         0         0         0         0         0 
dram[3]:         0         0         0         0         0         0         0         0         0         0         0         0         0         0         0         0 
dram[4]:         0         0         0         0         0         0         0         0         0         0         0         0         0         0         0         0 
dram[5]:         0         0         0         0         0         0         0         0         0         0         0         0         0         0         0         0 
total accesses: 0
min_bank_accesses = 0!
min_chip_accesses = 0!
number of total read accesses:
dram[0]:     10875     10693     10777     10573     10877     10742     10824     10675     10880     10760     10417     10222     10010      9873     10070      9904 
dram[1]:     10892     10637     10727     10543     10927     10712     10887     10739     11025     10826     10481     10238     10058      9882     10067      9923 
dram[2]:     10671     10896     10586     10785     10732     10949     10720     10823     10778     10890     10233     10322      9850     10043      9916     10095 
dram[3]:     10651     10856     10550     10743     10689     10942     10727     10900     10831     11020     10287     10409      9839     10050      9884     10037 
dram[4]:     10853     10676     10784     10565     10897     10680     10814     10687     10901     10739     10359     10192     10023      9871     10076      9866 
dram[5]:     10850     10654     10704     10500     10887     10693     10923     10742     10993     10826     10373     10232     10032      9897     10049      9903 
total reads: 1009681
bank skew: 11025/9839 = 1.12
chip skew: 168564/167983 = 1.00
number of total write accesses:
dram[0]:     12279     12189     12261     12163     12286     12243     12262     12175     12258     12187     11604     11509     11147     11100     11172     11120 
dram[1]:     12274     12230     12217     12179     12291     12235     12234     12203     12274     12213     11558     11478     11094     11045     11124     11104 
dram[2]:     12203     12299     12175     12250     12229     12318     12179     12271     12192     12283     11540     11552     11102     11162     11119     11200 
dram[3]:     12220     12260     12162     12212     12238     12304     12185     12239     12215     12272     11535     11470     11039     11109     11079     11115 
dram[4]:     12293     12204     12220     12143     12308     12204     12247     12162     12259     12174     11570     11475     11166     11101     11192     11123 
dram[5]:     12275     12226     12188     12174     12282     12229     12252     12173     12252     12209     11471     11455     11076     11059     11098     11061 
total reads: 1138757
bank skew: 12318/11039 = 1.12
chip skew: 190074/189480 = 1.00
average mf latency per bank:
dram[0]:        475       475       481       480       480       475       487       480       487       479       484       475       480       479       481       477
dram[1]:        479       477       476       474       475       480       484       483       476       475       483       482       480       480       474       481
dram[2]:        473       474       477       479       473       479       476       485       476       483       473       477       478       480       477       482
dram[3]:        472       484       468       480       470       480       476       488       467       479       475       488       473       482       475       480
dram[4]:        474       470       480       475       479       470       482       473       480       473       474       466       476       473       479       473
dram[5]:        477       472       474       469       477       474       484       478       475       470       480       476       478       472       473       476
maximum mf latency per bank:
dram[0]:       1917      1665      1911      1865      2047      1802      1936      1743      2028      1761      1807      1850      1808      1751      1867      1784
dram[1]:       1983      1815      1759      1762      1855      1715      1671      1753      1700      1673      1752      1750      1607      1783      1666      1988
dram[2]:       1689      1889      1778      2192      1709      2022      1685      1965      1644      1932      1842      1824      1805      1898      1676      1914
dram[3]:       1775      1726      1633      1826      1653      1682      1749      1692      1692      1732      1656      1686      1689      1633      1751      1721
dram[4]:       1948      1759      1947      1878      2021      1828      1912      1677      1864      1759      1822      1817      1831      1689      1909      1840
dram[5]:       1831      1760      1805      1771      1664      1708      1737      1801      1744      1742      1580      1737      1734      1758      1674      1806

Number of Memory Banks Accessed per Memory Operation per Warp (from 0):
0	0	0	0	0	0	0	0	0	0	0	0	0	0	0	0	0	0	0	0	0	0	0	0	0	0	0	0	0	0	0	0	0	0	0	0	0	0	0	0	0	0	0	0	0	0	0	0	0	0	0	0	0	0	0	0	0	0	0	0	0	0	0	0	0	0	0	0	0	0	0	0	0	0	0	0	0	0	0	0	0	0	0	0	0	0	0	0	0	0	0	0	0	0	0	0	
Average # of Memory Banks Accessed per Memory Operation per Warp=-nan

position of mrq chosen
0	0	0	0	0	0	0	0	0	0	0	0	0	0	0	0	

average position of mrq chosen = -nan
Memory Partition 0: 
Cache L2_bank_000:
MSHR contents

Cache L2_bank_001:
MSHR contents

In Dram Latency Queue (total = 0): 
DRAM[0]: 16 bks, busW=4 BL=8 CL=12, tRRD=2 tCCD=6, tRCD=12 tRAS=28 tRP=12 tRC=40
n_cmd=2767150 n_nop=1902627 n_act=163650 n_pre=163634 n_req=358127 n_rd=336344 n_write=200895 bw_util=0.3883
n_activity=2296534 dram_eff=0.4679
bk0: 21750a 2058488i bk1: 21386a 2058424i bk2: 21554a 2037742i bk3: 21146a 2041663i bk4: 21754a 2022912i bk5: 21484a 2025291i bk6: 21648a 2015749i bk7: 21350a 2016706i bk8: 21760a 2042134i bk9: 21520a 2049928i bk10: 20834a 2074224i bk11: 20444a 2079679i bk12: 20020a 2086875i bk13: 19746a 2088322i bk14: 20140a 2076419i bk15: 19808a 2084861i 
dram_util_bins: 0 0 0 0 0 0 0 0 0 0
dram_eff_bins: 0 0 0 0 0 0 0 0 0 0
mrqq: max=16 avg=6.94105
Memory Partition 1: 
Cache L2_bank_002:
MSHR contents

Cache L2_bank_003:
MSHR contents

In Dram Latency Queue (total = 0): 
DRAM[1]: 16 bks, busW=4 BL=8 CL=12, tRRD=2 tCCD=6, tRCD=12 tRAS=28 tRP=12 tRC=40
n_cmd=2767150 n_nop=1901520 n_act=163979 n_pre=163963 n_req=358317 n_rd=337128 n_write=200560 bw_util=0.3886
n_activity=2297828 dram_eff=0.468
bk0: 21784a 2047667i bk1: 21274a 2051772i bk2: 21454a 2037034i bk3: 21086a 2043310i bk4: 21854a 2023080i bk5: 21424a 2021700i bk6: 21774a 2006231i bk7: 21478a 2014528i bk8: 22050a 2045046i bk9: 21652a 2049021i bk10: 20962a 2063840i bk11: 20476a 2076395i bk12: 20116a 2083733i bk13: 19764a 2093473i bk14: 20134a 2079042i bk15: 19846a 2081497i 
dram_util_bins: 0 0 0 0 0 0 0 0 0 0
dram_eff_bins: 0 0 0 0 0 0 0 0 0 0
mrqq: max=16 avg=7.02001
Memory Partition 2: 
Cache L2_bank_004:
MSHR contents

Cache L2_bank_005:
MSHR contents

In Dram Latency Queue (total = 0): 
DRAM[2]: 16 bks, busW=4 BL=8 CL=12, tRRD=2 tCCD=6, tRCD=12 tRAS=28 tRP=12 tRC=40
n_cmd=2767150 n_nop=1901848 n_act=163872 n_pre=163856 n_req=358363 n_rd=336578 n_write=200996 bw_util=0.3885
n_activity=2299599 dram_eff=0.4675
bk0: 21342a 2058920i bk1: 21792a 2052306i bk2: 21172a 2043555i bk3: 21570a 2033733i bk4: 21464a 2031083i bk5: 21898a 2019332i bk6: 21440a 2018068i bk7: 21646a 2011844i bk8: 21556a 2045788i bk9: 21780a 2041474i bk10: 20466a 2078929i bk11: 20644a 2077191i bk12: 19700a 2092459i bk13: 20086a 2080845i bk14: 19832a 2081700i bk15: 20190a 2073570i 
dram_util_bins: 0 0 0 0 0 0 0 0 0 0
dram_eff_bins: 0 0 0 0 0 0 0 0 0 0
mrqq: max=16 avg=6.94019
Memory Partition 3: 
Cache L2_bank_006:
MSHR contents

Cache L2_bank_007:
MSHR contents

In Dram Latency Queue (total = 0): 
DRAM[3]: 16 bks, busW=4 BL=8 CL=12, tRRD=2 tCCD=6, tRCD=12 tRAS=28 tRP=12 tRC=40
n_cmd=2767150 n_nop=1902146 n_act=163757 n_pre=163741 n_req=358069 n_rd=336830 n_write=200676 bw_util=0.3885
n_activity=2296149 dram_eff=0.4682
bk0: 21302a 2056694i bk1: 21712a 2046325i bk2: 21100a 2045056i bk3: 21486a 2035170i bk4: 21378a 2029352i bk5: 21884a 2016646i bk6: 21454a 2018474i bk7: 21800a 2005211i bk8: 21662a 2052009i bk9: 22040a 2042146i bk10: 20574a 2073600i bk11: 20818a 2072786i bk12: 19678a 2094587i bk13: 20100a 2086010i bk14: 19768a 2083596i bk15: 20074a 2078010i 
dram_util_bins: 0 0 0 0 0 0 0 0 0 0
dram_eff_bins: 0 0 0 0 0 0 0 0 0 0
mrqq: max=16 avg=6.97292
Memory Partition 4: 
Cache L2_bank_008:
MSHR contents

Cache L2_bank_009:
MSHR contents

In Dram Latency Queue (total = 0): 
DRAM[4]: 16 bks, busW=4 BL=8 CL=12, tRRD=2 tCCD=6, tRCD=12 tRAS=28 tRP=12 tRC=40
n_cmd=2767150 n_nop=1903268 n_act=163550 n_pre=163534 n_req=357824 n_rd=335966 n_write=200832 bw_util=0.388
n_activity=2296363 dram_eff=0.4675
bk0: 21706a 2056249i bk1: 21352a 2060709i bk2: 21568a 2037408i bk3: 21130a 2043857i bk4: 21794a 2022884i bk5: 21360a 2028613i bk6: 21628a 2015356i bk7: 21374a 2018312i bk8: 21802a 2046818i bk9: 21478a 2047515i bk10: 20718a 2076347i bk11: 20384a 2084595i bk12: 20046a 2084525i bk13: 19742a 2090564i bk14: 20152a 2075663i bk15: 19732a 2085655i 
dram_util_bins: 0 0 0 0 0 0 0 0 0 0
dram_eff_bins: 0 0 0 0 0 0 0 0 0 0
mrqq: max=16 avg=6.92175
Memory Partition 5: 
Cache L2_bank_010:
MSHR contents

Cache L2_bank_011:
MSHR contents

In Dram Latency Queue (total = 0): 
DRAM[5]: 16 bks, busW=4 BL=8 CL=12, tRRD=2 tCCD=6, tRCD=12 tRAS=28 tRP=12 tRC=40
n_cmd=2767150 n_nop=1902353 n_act=163843 n_pre=163827 n_req=357738 n_rd=336516 n_write=200611 bw_util=0.3882
n_activity=2295155 dram_eff=0.4681
bk0: 21700a 2047999i bk1: 21308a 2051877i bk2: 21408a 2040033i bk3: 21000a 2042281i bk4: 21774a 2023622i bk5: 21386a 2024355i bk6: 21846a 2007931i bk7: 21484a 2014156i bk8: 21986a 2045018i bk9: 21652a 2051197i bk10: 20746a 2071069i bk11: 20464a 2076676i bk12: 20064a 2086274i bk13: 19794a 2093121i bk14: 20098a 2081522i bk15: 19806a 2082318i 
dram_util_bins: 0 0 0 0 0 0 0 0 0 0
dram_eff_bins: 0 0 0 0 0 0 0 0 0 0
mrqq: max=16 avg=6.94871

========= L2 cache stats =========
L2_cache_bank[0]: Access = 119708, Miss = 84730, Miss_rate = 0.708, Pending_hits = 17679, Reservation_fails = 447995
L2_cache_bank[1]: Access = 119643, Miss = 83442, Miss_rate = 0.697, Pending_hits = 18029, Reservation_fails = 431888
L2_cache_bank[2]: Access = 119820, Miss = 85064, Miss_rate = 0.710, Pending_hits = 17224, Reservation_fails = 439081
L2_cache_bank[3]: Access = 119627, Miss = 83500, Miss_rate = 0.698, Pending_hits = 18100, Reservation_fails = 431035
L2_cache_bank[4]: Access = 119733, Miss = 83486, Miss_rate = 0.697, Pending_hits = 18037, Reservation_fails = 429408
L2_cache_bank[5]: Access = 119609, Miss = 84803, Miss_rate = 0.709, Pending_hits = 17752, Reservation_fails = 444805
L2_cache_bank[6]: Access = 119691, Miss = 83458, Miss_rate = 0.697, Pending_hits = 17971, Reservation_fails = 422233
L2_cache_bank[7]: Access = 119723, Miss = 84957, Miss_rate = 0.710, Pending_hits = 17188, Reservation_fails = 441509
L2_cache_bank[8]: Access = 119592, Miss = 84707, Miss_rate = 0.708, Pending_hits = 17694, Reservation_fails = 443361
L2_cache_bank[9]: Access = 119665, Miss = 83276, Miss_rate = 0.696, Pending_hits = 18087, Reservation_fails = 422204
L2_cache_bank[10]: Access = 119721, Miss = 84811, Miss_rate = 0.708, Pending_hits = 17100, Reservation_fails = 433201
L2_cache_bank[11]: Access = 119642, Miss = 83447, Miss_rate = 0.697, Pending_hits = 17945, Reservation_fails = 423916
L2_total_cache_accesses = 1436174
L2_total_cache_misses = 1009681
L2_total_cache_miss_rate = 0.7030
L2_total_cache_pending_hits = 212806
L2_total_cache_reservation_fails = 5210636
L2_total_cache_breakdown:
	L2_cache_stats_breakdown[GLOBAL_ACC_R][HIT] = 106906
	L2_cache_stats_breakdown[GLOBAL_ACC_R][HIT_RESERVED] = 15946
	L2_cache_stats_breakdown[GLOBAL_ACC_R][MISS] = 133569
	L2_cache_stats_breakdown[GLOBAL_ACC_R][RESERVATION_FAIL] = 33824
	L2_cache_stats_breakdown[CONST_ACC_R][HIT] = 11
	L2_cache_stats_breakdown[CONST_ACC_R][HIT_RESERVED] = 3
	L2_cache_stats_breakdown[CONST_ACC_R][MISS] = 1
	L2_cache_stats_breakdown[CONST_ACC_R][RESERVATION_FAIL] = 93
	L2_cache_stats_breakdown[GLOBAL_ACC_W][HIT] = 106704
	L2_cache_stats_breakdown[GLOBAL_ACC_W][HIT_RESERVED] = 196839
	L2_cache_stats_breakdown[GLOBAL_ACC_W][MISS] = 876105
	L2_cache_stats_breakdown[GLOBAL_ACC_W][RESERVATION_FAIL] = 5176067
	L2_cache_stats_breakdown[INST_ACC_R][HIT] = 66
	L2_cache_stats_breakdown[INST_ACC_R][HIT_RESERVED] = 18
	L2_cache_stats_breakdown[INST_ACC_R][MISS] = 6
	L2_cache_stats_breakdown[INST_ACC_R][RESERVATION_FAIL] = 652
L2_cache_data_port_util = 0.022
L2_cache_fill_port_util = 0.161

icnt_total_pkts_mem_to_simt=2462248
icnt_total_pkts_simt_to_mem=2746894
LD_mem_lat_dist  0 0 0 0 0 0 0 0 0 0 0 0 0 0 0 0 0 0 0 0 0 0 0 0 0 0 0
ST_mem_lat_dist  0 0 0 0 0 0 0 0 0 0 0 0 0 0 0 0 0 0 0 0 0 0 0 0 0 0 0
----------------------------Interconnect-DETAILS--------------------------------
Class 0:
Packet latency average = 76.078
	minimum = 6
	maximum = 1241
Network latency average = 45.8517
	minimum = 6
	maximum = 889
Slowest packet = 2614096
Flit latency average = 37.5212
	minimum = 6
	maximum = 889
Slowest flit = 4566326
Fragmentation average = 0.411953
	minimum = 0
	maximum = 451
Injected packet rate average = 0.0592964
	minimum = 0.0500068 (at node 13)
	maximum = 0.0668459 (at node 17)
Accepted packet rate average = 0.0592964
	minimum = 0.0500068 (at node 13)
	maximum = 0.0668459 (at node 17)
Injected flit rate average = 0.148022
	minimum = 0.100407 (at node 13)
	maximum = 0.19983 (at node 25)
Accepted flit rate average= 0.148022
	minimum = 0.133704 (at node 18)
	maximum = 0.170594 (at node 5)
Injected packet length average = 2.49631
Accepted packet length average = 2.49631
Total in-flight flits = 0 (0 measured)
====== Overall Traffic Statistics ======
====== Traffic class 0 ======
Packet latency average = 90.175 (4 samples)
	minimum = 6 (4 samples)
	maximum = 1152.5 (4 samples)
Network latency average = 51.557 (4 samples)
	minimum = 6 (4 samples)
	maximum = 878.75 (4 samples)
Flit latency average = 50.297 (4 samples)
	minimum = 6 (4 samples)
	maximum = 878.75 (4 samples)
Fragmentation average = 0.294565 (4 samples)
	minimum = 0 (4 samples)
	maximum = 479.75 (4 samples)
Injected packet rate average = 0.0542318 (4 samples)
	minimum = 0.0458644 (4 samples)
	maximum = 0.0611365 (4 samples)
Accepted packet rate average = 0.0542318 (4 samples)
	minimum = 0.0458644 (4 samples)
	maximum = 0.0611365 (4 samples)
Injected flit rate average = 0.114874 (4 samples)
	minimum = 0.0888251 (4 samples)
	maximum = 0.143882 (4 samples)
Accepted flit rate average = 0.114874 (4 samples)
	minimum = 0.0973834 (4 samples)
	maximum = 0.138695 (4 samples)
Injected packet size average = 2.11821 (4 samples)
Accepted packet size average = 2.11821 (4 samples)
Hops average = 1 (4 samples)
----------------------------END-of-Interconnect-DETAILS-------------------------


gpgpu_simulation_time = 0 days, 0 hrs, 27 min, 46 sec (1666 sec)
gpgpu_simulation_rate = 115809 (inst/sec)
gpgpu_simulation_rate = 1258 (cycle/sec)
GPGPU-Sim: synchronize waiting for inactive GPU simulation
GPGPU-Sim API: Stream Manager State
GPGPU-Sim: detected inactive GPU simulation thread
Naive transpose average time:     559302.375 ms
Optimized transpose average time: 260269.750 ms

Test PASSED
GPGPU-Sim: exit_simulation called
GPGPU-Sim: simulation thread signaled exit

Press ENTER to exit...
