

        *** GPGPU-Sim Simulator Version 3.2.2  [build 0] ***


GPGPU-Sim PTX: simulation mode 0 (can change with PTX_SIM_MODE_FUNC environment variable:
               1=functional simulation only, 0=detailed performance simulator)
GPGPU-Sim: Configuration options:

-network_mode                           1 # Interconnection network mode
-inter_config_file   config_fermi_islip.icnt # Interconnection network config file
-gpgpu_ptx_use_cuobjdump                    1 # Use cuobjdump to extract ptx and sass from binaries
-gpgpu_experimental_lib_support                    0 # Try to extract code from cuda libraries [Broken because of unknown cudaGetExportTable]
-gpgpu_ptx_convert_to_ptxplus                    0 # Convert SASS (native ISA) to ptxplus and run ptxplus
-gpgpu_ptx_force_max_capability                   20 # Force maximum compute capability
-gpgpu_ptx_inst_debug_to_file                    0 # Dump executed instructions' debug information to file
-gpgpu_ptx_inst_debug_file       inst_debug.txt # Executed instructions' debug output file
-gpgpu_ptx_inst_debug_thread_uid                    1 # Thread UID for executed instructions' debug output
-gpgpu_simd_model                       1 # 1 = post-dominator
-gpgpu_shader_core_pipeline              1536:32 # shader core pipeline config, i.e., {<nthread>:<warpsize>}
-gpgpu_tex_cache:l1  4:128:24,L:R:m:N:L,F:128:4,128:2 # per-shader L1 texture cache  (READ-ONLY) config  {<nsets>:<bsize>:<assoc>,<rep>:<wr>:<alloc>:<wr_alloc>,<mshr>:<N>:<merge>,<mq>:<rf>}
-gpgpu_const_cache:l1 64:64:2,L:R:f:N:L,A:2:32,4 # per-shader L1 constant memory cache  (READ-ONLY) config  {<nsets>:<bsize>:<assoc>,<rep>:<wr>:<alloc>:<wr_alloc>,<mshr>:<N>:<merge>,<mq>} 
-gpgpu_cache:il1     4:128:4,L:R:f:N:L,A:2:32,4 # shader L1 instruction cache config  {<nsets>:<bsize>:<assoc>,<rep>:<wr>:<alloc>:<wr_alloc>,<mshr>:<N>:<merge>,<mq>} 
-gpgpu_cache:dl1     64:128:2,L:L:m:N:H,A:32:8,8 # per-shader L1 data cache config  {<nsets>:<bsize>:<assoc>,<rep>:<wr>:<alloc>:<wr_alloc>,<mshr>:<N>:<merge>,<mq> | none}
-gpgpu_cache:dl1PrefL1                 none # per-shader L1 data cache config  {<nsets>:<bsize>:<assoc>,<rep>:<wr>:<alloc>:<wr_alloc>,<mshr>:<N>:<merge>,<mq> | none}
-gpgpu_cache:dl1PreShared                 none # per-shader L1 data cache config  {<nsets>:<bsize>:<assoc>,<rep>:<wr>:<alloc>:<wr_alloc>,<mshr>:<N>:<merge>,<mq> | none}
-gmem_skip_L1D                          0 # global memory access skip L1D cache (implements -Xptxas -dlcm=cg, default=no skip)
-gpgpu_perfect_mem                      0 # enable perfect memory mode (no cache miss)
-n_regfile_gating_group                    4 # group of lanes that should be read/written together)
-gpgpu_clock_gated_reg_file                    0 # enable clock gated reg file for power calculations
-gpgpu_clock_gated_lanes                    0 # enable clock gated lanes for power calculations
-gpgpu_shader_registers                32768 # Number of registers per shader core. Limits number of concurrent CTAs. (default 8192)
-gpgpu_shader_cta                       8 # Maximum number of concurrent CTAs in shader (default 8)
-gpgpu_num_cta_barriers                   16 # Maximum number of named barriers per CTA (default 16)
-gpgpu_n_clusters                      15 # number of processing clusters
-gpgpu_n_cores_per_cluster                    1 # number of simd cores per cluster
-gpgpu_n_cluster_ejection_buffer_size                    8 # number of packets in ejection buffer
-gpgpu_n_ldst_response_buffer_size                    2 # number of response packets in ld/st unit ejection buffer
-gpgpu_shmem_size                   16384 # Size of shared memory per shader core (default 16kB)
-gpgpu_shmem_size                   49152 # Size of shared memory per shader core (default 16kB)
-gpgpu_shmem_size_PrefL1                16384 # Size of shared memory per shader core (default 16kB)
-gpgpu_shmem_size_PrefShared                16384 # Size of shared memory per shader core (default 16kB)
-gpgpu_shmem_num_banks                   32 # Number of banks in the shared memory in each shader core (default 16)
-gpgpu_shmem_limited_broadcast                    0 # Limit shared memory to do one broadcast per cycle (default on)
-gpgpu_shmem_warp_parts                    1 # Number of portions a warp is divided into for shared memory bank conflict check 
-gpgpu_warpdistro_shader                   -1 # Specify which shader core to collect the warp size distribution from
-gpgpu_warp_issue_shader                    0 # Specify which shader core to collect the warp issue distribution from
-gpgpu_local_mem_map                    1 # Mapping from local memory space address to simulated GPU physical address space (default = enabled)
-gpgpu_num_reg_banks                   16 # Number of register banks (default = 8)
-gpgpu_reg_bank_use_warp_id                    0 # Use warp ID in mapping registers to banks (default = off)
-gpgpu_operand_collector_num_units_sp                    6 # number of collector units (default = 4)
-gpgpu_operand_collector_num_units_sfu                    8 # number of collector units (default = 4)
-gpgpu_operand_collector_num_units_mem                    2 # number of collector units (default = 2)
-gpgpu_operand_collector_num_units_gen                    0 # number of collector units (default = 0)
-gpgpu_operand_collector_num_in_ports_sp                    2 # number of collector unit in ports (default = 1)
-gpgpu_operand_collector_num_in_ports_sfu                    1 # number of collector unit in ports (default = 1)
-gpgpu_operand_collector_num_in_ports_mem                    1 # number of collector unit in ports (default = 1)
-gpgpu_operand_collector_num_in_ports_gen                    0 # number of collector unit in ports (default = 0)
-gpgpu_operand_collector_num_out_ports_sp                    2 # number of collector unit in ports (default = 1)
-gpgpu_operand_collector_num_out_ports_sfu                    1 # number of collector unit in ports (default = 1)
-gpgpu_operand_collector_num_out_ports_mem                    1 # number of collector unit in ports (default = 1)
-gpgpu_operand_collector_num_out_ports_gen                    0 # number of collector unit in ports (default = 0)
-gpgpu_coalesce_arch                   13 # Coalescing arch (default = 13, anything else is off for now)
-gpgpu_num_sched_per_core                    2 # Number of warp schedulers per core
-gpgpu_max_insn_issue_per_warp                    1 # Max number of instructions that can be issued per warp in one cycle by scheduler
-gpgpu_simt_core_sim_order                    1 # Select the simulation order of cores in a cluster (0=Fix, 1=Round-Robin)
-gpgpu_pipeline_widths        2,1,1,2,1,1,2 # Pipeline widths ID_OC_SP,ID_OC_SFU,ID_OC_MEM,OC_EX_SP,OC_EX_SFU,OC_EX_MEM,EX_WB
-gpgpu_num_sp_units                     2 # Number of SP units (default=1)
-gpgpu_num_sfu_units                    1 # Number of SF units (default=1)
-gpgpu_num_mem_units                    1 # Number if ldst units (default=1) WARNING: not hooked up to anything
-gpgpu_scheduler                      gto # Scheduler configuration: < lrr | gto | two_level_active > If two_level_active:<num_active_warps>:<inner_prioritization>:<outer_prioritization>For complete list of prioritization values see shader.h enum scheduler_prioritization_typeDefault: gto
-gpgpu_dram_scheduler                    1 # 0 = fifo, 1 = FR-FCFS (defaul)
-gpgpu_dram_partition_queues              8:8:8:8 # i2$:$2d:d2$:$2i
-l2_ideal                               0 # Use a ideal L2 cache that always hit
-gpgpu_cache:dl2     64:128:8,L:B:m:W:L,A:32:4,4:0,32 # unified banked L2 data cache config  {<nsets>:<bsize>:<assoc>,<rep>:<wr>:<alloc>:<wr_alloc>,<mshr>:<N>:<merge>,<mq>}
-gpgpu_cache:dl2_texture_only                    0 # L2 cache used for texture only
-gpgpu_n_mem                            6 # number of memory modules (e.g. memory controllers) in gpu
-gpgpu_n_sub_partition_per_mchannel                    2 # number of memory subpartition in each memory module
-gpgpu_n_mem_per_ctrlr                    2 # number of memory chips per memory controller
-gpgpu_memlatency_stat                   14 # track and display latency statistics 0x2 enables MC, 0x4 enables queue logs
-gpgpu_frfcfs_dram_sched_queue_size                   16 # 0 = unlimited (default); # entries per chip
-gpgpu_dram_return_queue_size                  116 # 0 = unlimited (default); # entries per chip
-gpgpu_dram_buswidth                    4 # default = 4 bytes (8 bytes per cycle at DDR)
-gpgpu_dram_burst_length                    8 # Burst length of each DRAM request (default = 4 data bus cycle)
-dram_data_command_freq_ratio                    4 # Frequency ratio between DRAM data bus and command bus (default = 2 times, i.e. DDR)
-gpgpu_dram_timing_opt nbk=16:CCD=2:RRD=6:RCD=12:RAS=28:RP=12:RC=40: CL=12:WL=4:CDLR=5:WR=12:nbkgrp=4:CCDL=3:RTPL=2 # DRAM timing parameters = {nbk:tCCD:tRRD:tRCD:tRAS:tRP:tRC:CL:WL:tCDLR:tWR:nbkgrp:tCCDL:tRTPL}
-rop_latency                          120 # ROP queue latency (default 85)
-dram_latency                         100 # DRAM latency (default 30)
-gpgpu_mem_addr_mapping dramid@8;00000000.00000000.00000000.00000000.0000RRRR.RRRRRRRR.BBBCCCCB.CCSSSSSS # mapping memory address to dram model {dramid@<start bit>;<memory address map>}
-gpgpu_mem_addr_test                    0 # run sweep test to check address mapping for aliased address
-gpgpu_mem_address_mask                    1 # 0 = old addressing mask, 1 = new addressing mask, 2 = new add. mask + flipped bank sel and chip sel bits
-gpuwattch_xml_file  gpuwattch_gtx480.xml # GPUWattch XML file
-power_simulation_enabled                    1 # Turn on power simulator (1=On, 0=Off)
-power_per_cycle_dump                    0 # Dump detailed power output each cycle
-power_trace_enabled                    0 # produce a file for the power trace (1=On, 0=Off)
-power_trace_zlevel                     6 # Compression level of the power trace output log (0=no comp, 9=highest)
-steady_power_levels_enabled                    0 # produce a file for the steady power levels (1=On, 0=Off)
-steady_state_definition                  8:4 # allowed deviation:number of samples
-gpgpu_max_cycle                        0 # terminates gpu simulation early (0 = no limit)
-gpgpu_max_insn                         0 # terminates gpu simulation early (0 = no limit)
-gpgpu_max_cta                          0 # terminates gpu simulation early (0 = no limit)
-gpgpu_runtime_stat                   500 # display runtime statistics such as dram utilization {<freq>:<flag>}
-liveness_message_freq                    1 # Minimum number of seconds between simulation liveness messages (0 = always print)
-gpgpu_flush_l1_cache                    0 # Flush L1 cache at the end of each kernel call
-gpgpu_flush_l2_cache                    0 # Flush L2 cache at the end of each kernel call
-gpgpu_deadlock_detect                    1 # Stop the simulation at deadlock (1=on (default), 0=off)
-gpgpu_ptx_instruction_classification                    0 # if enabled will classify ptx instruction types per kernel (Max 255 kernels now)
-gpgpu_ptx_sim_mode                     0 # Select between Performance (default) or Functional simulation (1)
-gpgpu_clock_domains 700.0:700.0:700.0:924.0 # Clock Domain Frequencies in MhZ {<Core Clock>:<ICNT Clock>:<L2 Clock>:<DRAM Clock>}
-gpgpu_max_concurrent_kernel                    8 # maximum kernels that can run concurrently on GPU
-gpgpu_cflog_interval                    0 # Interval between each snapshot in control flow logger
-visualizer_enabled                     0 # Turn on visualizer output (1=On, 0=Off)
-visualizer_outputfile                 NULL # Specifies the output log file for visualizer
-visualizer_zlevel                      6 # Compression level of the visualizer output log (0=no comp, 9=highest)
-trace_enabled                          0 # Turn on traces
-trace_components                    none # comma seperated list of traces to enable. Complete list found in trace_streams.tup. Default none
-trace_sampling_core                    0 # The core which is printed using CORE_DPRINTF. Default 0
-trace_sampling_memory_partition                   -1 # The memory partition which is printed using MEMPART_DPRINTF. Default -1 (i.e. all)
-enable_ptx_file_line_stats                    1 # Turn on PTX source line statistic profiling. (1 = On)
-ptx_line_stats_filename gpgpu_inst_stats.txt # Output file for PTX source line statistics.
-save_embedded_ptx                      0 # saves ptx files embedded in binary as <n>.ptx
-keep                                   0 # keep intermediate files created by GPGPU-Sim when interfacing with external programs
-gpgpu_ptx_save_converted_ptxplus                    0 # Saved converted ptxplus to a file
-ptx_opcode_latency_int         4,13,4,5,145 # Opcode latencies for integers <ADD,MAX,MUL,MAD,DIV>Default 1,1,19,25,145
-ptx_opcode_latency_fp          4,13,4,5,39 # Opcode latencies for single precision floating points <ADD,MAX,MUL,MAD,DIV>Default 1,1,1,1,30
-ptx_opcode_latency_dp         8,19,8,8,330 # Opcode latencies for double precision floating points <ADD,MAX,MUL,MAD,DIV>Default 8,8,8,8,335
-ptx_opcode_initiation_int            1,2,2,1,8 # Opcode initiation intervals for integers <ADD,MAX,MUL,MAD,DIV>Default 1,1,4,4,32
-ptx_opcode_initiation_fp            1,2,1,1,4 # Opcode initiation intervals for single precision floating points <ADD,MAX,MUL,MAD,DIV>Default 1,1,1,1,5
-ptx_opcode_initiation_dp         8,16,8,8,130 # Opcode initiation intervals for double precision floating points <ADD,MAX,MUL,MAD,DIV>Default 8,8,8,8,130
DRAM Timing Options:
nbk                                    16 # number of banks
CCD                                     2 # column to column delay
RRD                                     6 # minimal delay between activation of rows in different banks
RCD                                    12 # row to column delay
RAS                                    28 # time needed to activate row
RP                                     12 # time needed to precharge (deactivate) row
RC                                     40 # row cycle time
CDLR                                    5 # switching from write to read (changes tWTR)
WR                                     12 # last data-in to row precharge
CL                                     12 # CAS latency
WL                                      4 # Write latency
nbkgrp                                  4 # number of bank groups
CCDL                                    3 # column to column delay between accesses to different bank groups
RTPL                                    2 # read to precharge delay between accesses to different bank groups
Total number of memory sub partition = 12
addr_dec_mask[CHIP]  = 0000000000000000 	high:64 low:0
addr_dec_mask[BK]    = 000000000000e100 	high:16 low:8
addr_dec_mask[ROW]   = 000000000fff0000 	high:28 low:16
addr_dec_mask[COL]   = 0000000000001eff 	high:13 low:0
addr_dec_mask[BURST] = 000000000000003f 	high:6 low:0
sub_partition_id_mask = 0000000000000100
GPGPU-Sim uArch: clock freqs: 700000000.000000:700000000.000000:700000000.000000:924000000.000000
GPGPU-Sim uArch: clock periods: 0.00000000142857142857:0.00000000142857142857:0.00000000142857142857:0.00000000108225108225
*** Initializing Memory Statistics ***
GPGPU-Sim uArch: interconnect node map (shaderID+MemID to icntID)
GPGPU-Sim uArch: Memory nodes ID start from index: 15
GPGPU-Sim uArch:    0   1   2   3   4
GPGPU-Sim uArch:    5   6   7   8   9
GPGPU-Sim uArch:   10  11  12  13  14
GPGPU-Sim uArch:   15  16  17  18  19
GPGPU-Sim uArch:   20  21  22  23  24
GPGPU-Sim uArch:   25  26
GPGPU-Sim uArch: interconnect node reverse map (icntID to shaderID+MemID)
GPGPU-Sim uArch: Memory nodes start from ID: 15
GPGPU-Sim uArch:    0   1   2   3   4
GPGPU-Sim uArch:    5   6   7   8   9
GPGPU-Sim uArch:   10  11  12  13  14
GPGPU-Sim uArch:   15  16  17  18  19
GPGPU-Sim uArch:   20  21  22  23  24
GPGPU-Sim uArch:   25  26
42f7b457b4f8bc5f243a2d9180567621  /home/scratch/adwait/applications/benchmarks/CUDA/BlackScholes/gpgpu_ptx_sim__BlackScholes
GPGPU-Sim uArch: performance model initialization complete.
GPGPU-Sim PTX: __cudaRegisterFatBinary, fat_cubin_handle = 1, filename=BlackScholes.cu
self exe links to: /home/scratch/adwait/applications/benchmarks/CUDA/BlackScholes/gpgpu_ptx_sim__BlackScholes
Running md5sum using "md5sum /home/scratch/adwait/applications/benchmarks/CUDA/BlackScholes/gpgpu_ptx_sim__BlackScholes "
Running cuobjdump using "$CUDA_INSTALL_PATH/bin/cuobjdump -ptx -elf -sass /home/scratch/adwait/applications/benchmarks/CUDA/BlackScholes/gpgpu_ptx_sim__BlackScholes > _cuobjdump_complete_output_fl8c13"
Parsing file _cuobjdump_complete_output_fl8c13
######### cuobjdump parser ########
## Adding new section ELF
Adding arch: sm_20
Adding identifier: BlackScholes.cu
## Adding new section PTX
Adding ptx filename: _cuobjdump_1.ptx
Adding arch: sm_20
Adding identifier: BlackScholes.cu
Done parsing!!!
GPGPU-Sim PTX: __cudaRegisterFunction _Z15BlackScholesGPUPfS_S_S_S_ffi : hostFun 0x0x4050ed, fat_cubin_handle = 1
GPGPU-Sim PTX: instruction assembly for function '_Z15BlackScholesGPUPfS_S_S_S_ffi'...   done.
GPGPU-Sim PTX: finding reconvergence points for '_Z15BlackScholesGPUPfS_S_S_S_ffi'...
GPGPU-Sim PTX: Finding dominators for '_Z15BlackScholesGPUPfS_S_S_S_ffi'...
GPGPU-Sim PTX: Finding immediate dominators for '_Z15BlackScholesGPUPfS_S_S_S_ffi'...
GPGPU-Sim PTX: Finding postdominators for '_Z15BlackScholesGPUPfS_S_S_S_ffi'...
GPGPU-Sim PTX: Finding immediate postdominators for '_Z15BlackScholesGPUPfS_S_S_S_ffi'...
GPGPU-Sim PTX: pre-decoding instructions for '_Z15BlackScholesGPUPfS_S_S_S_ffi'...
GPGPU-Sim PTX: reconvergence points for _Z15BlackScholesGPUPfS_S_S_S_ffi...
GPGPU-Sim PTX:  1 (potential) branch divergence @  PC=0x040 (_1.ptx:76) @%p1 bra $Lt_0_2818;
GPGPU-Sim PTX:    immediate post dominator      @  PC=0x3f8 (_1.ptx:200) exit;
GPGPU-Sim PTX:  2 (potential) branch divergence @  PC=0x3f0 (_1.ptx:197) @%p4 bra $Lt_0_3330;
GPGPU-Sim PTX:    immediate post dominator      @  PC=0x3f8 (_1.ptx:200) exit;
GPGPU-Sim PTX: ... end of reconvergence points for _Z15BlackScholesGPUPfS_S_S_S_ffi
GPGPU-Sim PTX: ... done pre-decoding instructions for '_Z15BlackScholesGPUPfS_S_S_S_ffi'.
GPGPU-Sim PTX: finished parsing EMBEDDED .ptx file _1.ptx
Adding _cuobjdump_1.ptx with cubin handle 1
GPGPU-Sim PTX: extracting embedded .ptx to temporary file "_ptx_63vjfI"
Running: cat _ptx_63vjfI | sed 's/.version 1.5/.version 1.4/' | sed 's/, texmode_independent//' | sed 's/\(\.extern \.const\[1\] .b8 \w\+\)\[\]/\1\[1\]/' | sed 's/const\[.\]/const\[0\]/g' > _ptx2_1cpItm
GPGPU-Sim PTX: generating ptxinfo using "$CUDA_INSTALL_PATH/bin/ptxas --gpu-name=sm_20 -v _ptx2_1cpItm --output-file  /dev/null 2> _ptx_63vjfIinfo"
GPGPU-Sim PTX: Kernel '_Z15BlackScholesGPUPfS_S_S_S_ffi' : regs=31, lmem=0, smem=0, cmem=128
GPGPU-Sim PTX: removing ptxinfo using "rm -f _ptx_63vjfI _ptx2_1cpItm _ptx_63vjfIinfo"
GPGPU-Sim PTX: loading globals with explicit initializers... 
GPGPU-Sim PTX: finished loading globals (0 bytes total).
GPGPU-Sim PTX: loading constants with explicit initializers...  done.
Initializing data...
...allocating CPU memory for options.
...allocating GPU memory for options.
...generating input data in CPU mem.
...copying input data to GPU mem.
Data init done.
Executing Black-Scholes GPU kernel (1 iterations)...
GPGPU-Sim: synchronize waiting for inactive GPU simulation
GPGPU-Sim API: Stream Manager State
GPGPU-Sim: detected inactive GPU simulation thread

GPGPU-Sim PTX: cudaLaunch for 0x0x4050ed (mode=performance simulation) on stream 0
GPGPU-Sim PTX: pushing kernel '_Z15BlackScholesGPUPfS_S_S_S_ffi' to stream 0, gridDim= (480,1,1) blockDim = (128,1,1) 
kernel '_Z15BlackScholesGPUPfS_S_S_S_ffi' transfer to GPU hardware scheduler
GPGPU-Sim uArch: Shader 1 bind to kernel 1 '_Z15BlackScholesGPUPfS_S_S_S_ffi'
GPGPU-Sim uArch: CTA/core = 8, limited by: regs cta_limit
GPGPU-Sim uArch: core:  1, cta: 0 initialized @(1,0)
GPGPU-Sim uArch: Shader 2 bind to kernel 1 '_Z15BlackScholesGPUPfS_S_S_S_ffi'
GPGPU-Sim uArch: core:  2, cta: 0 initialized @(1,0)
GPGPU-Sim uArch: Shader 3 bind to kernel 1 '_Z15BlackScholesGPUPfS_S_S_S_ffi'
GPGPU-Sim uArch: core:  3, cta: 0 initialized @(1,0)
GPGPU-Sim uArch: Shader 4 bind to kernel 1 '_Z15BlackScholesGPUPfS_S_S_S_ffi'
GPGPU-Sim uArch: core:  4, cta: 0 initialized @(1,0)
GPGPU-Sim uArch: Shader 5 bind to kernel 1 '_Z15BlackScholesGPUPfS_S_S_S_ffi'
GPGPU-Sim uArch: core:  5, cta: 0 initialized @(1,0)
GPGPU-Sim uArch: Shader 6 bind to kernel 1 '_Z15BlackScholesGPUPfS_S_S_S_ffi'
GPGPU-Sim uArch: core:  6, cta: 0 initialized @(1,0)
GPGPU-Sim uArch: Shader 7 bind to kernel 1 '_Z15BlackScholesGPUPfS_S_S_S_ffi'
GPGPU-Sim uArch: core:  7, cta: 0 initialized @(1,0)
GPGPU-Sim uArch: Shader 8 bind to kernel 1 '_Z15BlackScholesGPUPfS_S_S_S_ffi'
GPGPU-Sim uArch: core:  8, cta: 0 initialized @(1,0)
GPGPU-Sim uArch: Shader 9 bind to kernel 1 '_Z15BlackScholesGPUPfS_S_S_S_ffi'
GPGPU-Sim uArch: core:  9, cta: 0 initialized @(1,0)
GPGPU-Sim uArch: Shader 10 bind to kernel 1 '_Z15BlackScholesGPUPfS_S_S_S_ffi'
GPGPU-Sim uArch: core: 10, cta: 0 initialized @(1,0)
GPGPU-Sim uArch: Shader 11 bind to kernel 1 '_Z15BlackScholesGPUPfS_S_S_S_ffi'
GPGPU-Sim uArch: core: 11, cta: 0 initialized @(1,0)
GPGPU-Sim uArch: Shader 12 bind to kernel 1 '_Z15BlackScholesGPUPfS_S_S_S_ffi'
GPGPU-Sim uArch: core: 12, cta: 0 initialized @(1,0)
GPGPU-Sim uArch: Shader 13 bind to kernel 1 '_Z15BlackScholesGPUPfS_S_S_S_ffi'
GPGPU-Sim uArch: core: 13, cta: 0 initialized @(1,0)
GPGPU-Sim uArch: Shader 14 bind to kernel 1 '_Z15BlackScholesGPUPfS_S_S_S_ffi'
GPGPU-Sim uArch: core: 14, cta: 0 initialized @(1,0)
GPGPU-Sim uArch: Shader 0 bind to kernel 1 '_Z15BlackScholesGPUPfS_S_S_S_ffi'
GPGPU-Sim uArch: core:  0, cta: 0 initialized @(1,0)
GPGPU-Sim uArch: core:  1, cta: 1 initialized @(2,0)
GPGPU-Sim uArch: core:  2, cta: 1 initialized @(2,0)
GPGPU-Sim uArch: core:  3, cta: 1 initialized @(2,0)
GPGPU-Sim uArch: core:  4, cta: 1 initialized @(2,0)
GPGPU-Sim uArch: core:  5, cta: 1 initialized @(2,0)
GPGPU-Sim uArch: core:  6, cta: 1 initialized @(2,0)
GPGPU-Sim uArch: core:  7, cta: 1 initialized @(2,0)
GPGPU-Sim uArch: core:  8, cta: 1 initialized @(2,0)
GPGPU-Sim uArch: core:  9, cta: 1 initialized @(2,0)
GPGPU-Sim uArch: core: 10, cta: 1 initialized @(2,0)
GPGPU-Sim uArch: core: 11, cta: 1 initialized @(2,0)
GPGPU-Sim uArch: core: 12, cta: 1 initialized @(2,0)
GPGPU-Sim uArch: core: 13, cta: 1 initialized @(2,0)
GPGPU-Sim uArch: core: 14, cta: 1 initialized @(2,0)
GPGPU-Sim uArch: core:  0, cta: 1 initialized @(2,0)
GPGPU-Sim uArch: core:  1, cta: 2 initialized @(3,0)
GPGPU-Sim uArch: core:  2, cta: 2 initialized @(3,0)
GPGPU-Sim uArch: core:  3, cta: 2 initialized @(3,0)
GPGPU-Sim uArch: core:  4, cta: 2 initialized @(3,0)
GPGPU-Sim uArch: core:  5, cta: 2 initialized @(3,0)
GPGPU-Sim uArch: core:  6, cta: 2 initialized @(3,0)
GPGPU-Sim uArch: core:  7, cta: 2 initialized @(3,0)
GPGPU-Sim uArch: core:  8, cta: 2 initialized @(3,0)
GPGPU-Sim uArch: core:  9, cta: 2 initialized @(3,0)
GPGPU-Sim uArch: core: 10, cta: 2 initialized @(3,0)
GPGPU-Sim uArch: core: 11, cta: 2 initialized @(3,0)
GPGPU-Sim uArch: core: 12, cta: 2 initialized @(3,0)
GPGPU-Sim uArch: core: 13, cta: 2 initialized @(3,0)
GPGPU-Sim uArch: core: 14, cta: 2 initialized @(3,0)
GPGPU-Sim uArch: core:  0, cta: 2 initialized @(3,0)
GPGPU-Sim uArch: core:  1, cta: 3 initialized @(4,0)
GPGPU-Sim uArch: core:  2, cta: 3 initialized @(4,0)
GPGPU-Sim uArch: core:  3, cta: 3 initialized @(4,0)
GPGPU-Sim uArch: core:  4, cta: 3 initialized @(4,0)
GPGPU-Sim uArch: core:  5, cta: 3 initialized @(4,0)
GPGPU-Sim uArch: core:  6, cta: 3 initialized @(4,0)
GPGPU-Sim uArch: core:  7, cta: 3 initialized @(4,0)
GPGPU-Sim uArch: core:  8, cta: 3 initialized @(4,0)
GPGPU-Sim uArch: core:  9, cta: 3 initialized @(4,0)
GPGPU-Sim uArch: core: 10, cta: 3 initialized @(4,0)
GPGPU-Sim uArch: core: 11, cta: 3 initialized @(4,0)
GPGPU-Sim uArch: core: 12, cta: 3 initialized @(4,0)
GPGPU-Sim uArch: core: 13, cta: 3 initialized @(4,0)
GPGPU-Sim uArch: core: 14, cta: 3 initialized @(4,0)
GPGPU-Sim uArch: core:  0, cta: 3 initialized @(4,0)
GPGPU-Sim uArch: core:  1, cta: 4 initialized @(5,0)
GPGPU-Sim uArch: core:  2, cta: 4 initialized @(5,0)
GPGPU-Sim uArch: core:  3, cta: 4 initialized @(5,0)
GPGPU-Sim uArch: core:  4, cta: 4 initialized @(5,0)
GPGPU-Sim uArch: core:  5, cta: 4 initialized @(5,0)
GPGPU-Sim uArch: core:  6, cta: 4 initialized @(5,0)
GPGPU-Sim uArch: core:  7, cta: 4 initialized @(5,0)
GPGPU-Sim uArch: core:  8, cta: 4 initialized @(5,0)
GPGPU-Sim uArch: core:  9, cta: 4 initialized @(5,0)
GPGPU-Sim uArch: core: 10, cta: 4 initialized @(5,0)
GPGPU-Sim uArch: core: 11, cta: 4 initialized @(5,0)
GPGPU-Sim uArch: core: 12, cta: 4 initialized @(5,0)
GPGPU-Sim uArch: core: 13, cta: 4 initialized @(5,0)
GPGPU-Sim uArch: core: 14, cta: 4 initialized @(5,0)
GPGPU-Sim uArch: core:  0, cta: 4 initialized @(5,0)
GPGPU-Sim uArch: core:  1, cta: 5 initialized @(6,0)
GPGPU-Sim uArch: core:  2, cta: 5 initialized @(6,0)
GPGPU-Sim uArch: core:  3, cta: 5 initialized @(6,0)
GPGPU-Sim uArch: core:  4, cta: 5 initialized @(6,0)
GPGPU-Sim uArch: core:  5, cta: 5 initialized @(6,0)
GPGPU-Sim uArch: core:  6, cta: 5 initialized @(6,0)
GPGPU-Sim uArch: core:  7, cta: 5 initialized @(6,0)
GPGPU-Sim uArch: core:  8, cta: 5 initialized @(6,0)
GPGPU-Sim uArch: core:  9, cta: 5 initialized @(6,0)
GPGPU-Sim uArch: core: 10, cta: 5 initialized @(6,0)
GPGPU-Sim uArch: core: 11, cta: 5 initialized @(6,0)
GPGPU-Sim uArch: core: 12, cta: 5 initialized @(6,0)
GPGPU-Sim uArch: core: 13, cta: 5 initialized @(6,0)
GPGPU-Sim uArch: core: 14, cta: 5 initialized @(6,0)
GPGPU-Sim uArch: core:  0, cta: 5 initialized @(6,0)
GPGPU-Sim uArch: core:  1, cta: 6 initialized @(7,0)
GPGPU-Sim uArch: core:  2, cta: 6 initialized @(7,0)
GPGPU-Sim uArch: core:  3, cta: 6 initialized @(7,0)
GPGPU-Sim uArch: core:  4, cta: 6 initialized @(7,0)
GPGPU-Sim uArch: core:  5, cta: 6 initialized @(7,0)
GPGPU-Sim uArch: core:  6, cta: 6 initialized @(7,0)
GPGPU-Sim uArch: core:  7, cta: 6 initialized @(7,0)
GPGPU-Sim uArch: core:  8, cta: 6 initialized @(7,0)
GPGPU-Sim uArch: core:  9, cta: 6 initialized @(7,0)
GPGPU-Sim uArch: core: 10, cta: 6 initialized @(7,0)
GPGPU-Sim uArch: core: 11, cta: 6 initialized @(7,0)
GPGPU-Sim uArch: core: 12, cta: 6 initialized @(7,0)
GPGPU-Sim uArch: core: 13, cta: 6 initialized @(7,0)
GPGPU-Sim uArch: core: 14, cta: 6 initialized @(7,0)
GPGPU-Sim uArch: core:  0, cta: 6 initialized @(7,0)
GPGPU-Sim uArch: core:  1, cta: 7 initialized @(8,0)
GPGPU-Sim uArch: core:  2, cta: 7 initialized @(8,0)
GPGPU-Sim uArch: core:  3, cta: 7 initialized @(8,0)
GPGPU-Sim uArch: core:  4, cta: 7 initialized @(8,0)
GPGPU-Sim uArch: core:  5, cta: 7 initialized @(8,0)
GPGPU-Sim uArch: core:  6, cta: 7 initialized @(8,0)
GPGPU-Sim uArch: core:  7, cta: 7 initialized @(8,0)
GPGPU-Sim uArch: core:  8, cta: 7 initialized @(8,0)
GPGPU-Sim uArch: core:  9, cta: 7 initialized @(8,0)
GPGPU-Sim uArch: core: 10, cta: 7 initialized @(8,0)
GPGPU-Sim uArch: core: 11, cta: 7 initialized @(8,0)
GPGPU-Sim uArch: core: 12, cta: 7 initialized @(8,0)
GPGPU-Sim uArch: core: 13, cta: 7 initialized @(8,0)
GPGPU-Sim uArch: core: 14, cta: 7 initialized @(8,0)
GPGPU-Sim uArch: core:  0, cta: 7 initialized @(8,0)
GPGPU-Sim PTX: 100000 instructions simulated : ctaid=(111,0,0) tid=(63,0,0)
GPGPU-Sim uArch: cycles simulated: 500  inst.: 92160 (ipc=184.3) sim_rate=30720 (inst/sec) elapsed = 0:0:00:03 / Tue Apr 16 16:55:29 2019
GPGPU-Sim PTX: 200000 instructions simulated : ctaid=(42,0,0) tid=(127,0,0)
GPGPU-Sim uArch: cycles simulated: 1000  inst.: 239456 (ipc=239.5) sim_rate=59864 (inst/sec) elapsed = 0:0:00:04 / Tue Apr 16 16:55:30 2019
GPGPU-Sim PTX: 300000 instructions simulated : ctaid=(52,0,0) tid=(95,0,0)
GPGPU-Sim PTX: 400000 instructions simulated : ctaid=(103,0,0) tid=(31,0,0)
GPGPU-Sim PTX: 500000 instructions simulated : ctaid=(44,0,0) tid=(95,0,0)
GPGPU-Sim uArch: cycles simulated: 2000  inst.: 475712 (ipc=237.9) sim_rate=95142 (inst/sec) elapsed = 0:0:00:05 / Tue Apr 16 16:55:31 2019
GPGPU-Sim PTX: 600000 instructions simulated : ctaid=(32,0,0) tid=(63,0,0)
GPGPU-Sim PTX: 700000 instructions simulated : ctaid=(42,0,0) tid=(95,0,0)
GPGPU-Sim PTX: 800000 instructions simulated : ctaid=(105,0,0) tid=(31,0,0)
GPGPU-Sim PTX: 900000 instructions simulated : ctaid=(32,0,0) tid=(127,0,0)
GPGPU-Sim uArch: cycles simulated: 3000  inst.: 957088 (ipc=319.0) sim_rate=159514 (inst/sec) elapsed = 0:0:00:06 / Tue Apr 16 16:55:32 2019
GPGPU-Sim PTX: 1000000 instructions simulated : ctaid=(67,0,0) tid=(31,0,0)
GPGPU-Sim PTX: 1100000 instructions simulated : ctaid=(54,0,0) tid=(95,0,0)
GPGPU-Sim PTX: 1200000 instructions simulated : ctaid=(50,0,0) tid=(31,0,0)
GPGPU-Sim uArch: cycles simulated: 3500  inst.: 1215072 (ipc=347.2) sim_rate=173581 (inst/sec) elapsed = 0:0:00:07 / Tue Apr 16 16:55:33 2019
GPGPU-Sim PTX: 1300000 instructions simulated : ctaid=(72,0,0) tid=(31,0,0)
GPGPU-Sim PTX: 1400000 instructions simulated : ctaid=(77,0,0) tid=(95,0,0)
GPGPU-Sim PTX: 1500000 instructions simulated : ctaid=(12,0,0) tid=(31,0,0)
GPGPU-Sim PTX: 1600000 instructions simulated : ctaid=(37,0,0) tid=(31,0,0)
GPGPU-Sim uArch: cycles simulated: 4000  inst.: 1617120 (ipc=404.3) sim_rate=179680 (inst/sec) elapsed = 0:0:00:09 / Tue Apr 16 16:55:35 2019
GPGPU-Sim PTX: 1700000 instructions simulated : ctaid=(115,0,0) tid=(127,0,0)
GPGPU-Sim PTX: 1800000 instructions simulated : ctaid=(109,0,0) tid=(127,0,0)
GPGPU-Sim uArch: cycles simulated: 5000  inst.: 1864992 (ipc=373.0) sim_rate=186499 (inst/sec) elapsed = 0:0:00:10 / Tue Apr 16 16:55:36 2019
GPGPU-Sim PTX: 1900000 instructions simulated : ctaid=(10,0,0) tid=(95,0,0)
GPGPU-Sim PTX: 2000000 instructions simulated : ctaid=(11,0,0) tid=(127,0,0)
GPGPU-Sim PTX: 2100000 instructions simulated : ctaid=(3,0,0) tid=(127,0,0)
GPGPU-Sim uArch: cycles simulated: 5500  inst.: 2160160 (ipc=392.8) sim_rate=196378 (inst/sec) elapsed = 0:0:00:11 / Tue Apr 16 16:55:37 2019
GPGPU-Sim PTX: 2200000 instructions simulated : ctaid=(89,0,0) tid=(127,0,0)
GPGPU-Sim PTX: 2300000 instructions simulated : ctaid=(54,0,0) tid=(31,0,0)
GPGPU-Sim PTX: 2400000 instructions simulated : ctaid=(23,0,0) tid=(31,0,0)
GPGPU-Sim PTX: 2500000 instructions simulated : ctaid=(40,0,0) tid=(63,0,0)
GPGPU-Sim uArch: cycles simulated: 6000  inst.: 2485280 (ipc=414.2) sim_rate=207106 (inst/sec) elapsed = 0:0:00:12 / Tue Apr 16 16:55:38 2019
GPGPU-Sim PTX: 2600000 instructions simulated : ctaid=(112,0,0) tid=(31,0,0)
GPGPU-Sim PTX: 2700000 instructions simulated : ctaid=(57,0,0) tid=(127,0,0)
GPGPU-Sim PTX: 2800000 instructions simulated : ctaid=(51,0,0) tid=(63,0,0)
GPGPU-Sim uArch: cycles simulated: 6500  inst.: 2789632 (ipc=429.2) sim_rate=214587 (inst/sec) elapsed = 0:0:00:13 / Tue Apr 16 16:55:39 2019
GPGPU-Sim PTX: 2900000 instructions simulated : ctaid=(86,0,0) tid=(95,0,0)
GPGPU-Sim PTX: 3000000 instructions simulated : ctaid=(76,0,0) tid=(63,0,0)
GPGPU-Sim PTX: 3100000 instructions simulated : ctaid=(49,0,0) tid=(127,0,0)
GPGPU-Sim uArch: cycles simulated: 7000  inst.: 3088768 (ipc=441.3) sim_rate=220626 (inst/sec) elapsed = 0:0:00:14 / Tue Apr 16 16:55:40 2019
GPGPU-Sim PTX: 3200000 instructions simulated : ctaid=(7,0,0) tid=(95,0,0)
GPGPU-Sim PTX: 3300000 instructions simulated : ctaid=(56,0,0) tid=(31,0,0)
GPGPU-Sim uArch: cycles simulated: 7500  inst.: 3357280 (ipc=447.6) sim_rate=223818 (inst/sec) elapsed = 0:0:00:15 / Tue Apr 16 16:55:41 2019
GPGPU-Sim PTX: 3400000 instructions simulated : ctaid=(32,0,0) tid=(127,0,0)
GPGPU-Sim PTX: 3500000 instructions simulated : ctaid=(46,0,0) tid=(95,0,0)
GPGPU-Sim PTX: 3600000 instructions simulated : ctaid=(45,0,0) tid=(31,0,0)
GPGPU-Sim uArch: cycles simulated: 8000  inst.: 3662688 (ipc=457.8) sim_rate=228918 (inst/sec) elapsed = 0:0:00:16 / Tue Apr 16 16:55:42 2019
GPGPU-Sim PTX: 3700000 instructions simulated : ctaid=(53,0,0) tid=(95,0,0)
GPGPU-Sim PTX: 3800000 instructions simulated : ctaid=(8,0,0) tid=(95,0,0)
GPGPU-Sim PTX: 3900000 instructions simulated : ctaid=(23,0,0) tid=(127,0,0)
GPGPU-Sim uArch: cycles simulated: 8500  inst.: 3933824 (ipc=462.8) sim_rate=231401 (inst/sec) elapsed = 0:0:00:17 / Tue Apr 16 16:55:43 2019
GPGPU-Sim PTX: 4000000 instructions simulated : ctaid=(11,0,0) tid=(95,0,0)
GPGPU-Sim PTX: 4100000 instructions simulated : ctaid=(80,0,0) tid=(127,0,0)
GPGPU-Sim PTX: 4200000 instructions simulated : ctaid=(65,0,0) tid=(63,0,0)
GPGPU-Sim uArch: cycles simulated: 9000  inst.: 4238944 (ipc=471.0) sim_rate=235496 (inst/sec) elapsed = 0:0:00:18 / Tue Apr 16 16:55:44 2019
GPGPU-Sim PTX: 4300000 instructions simulated : ctaid=(46,0,0) tid=(95,0,0)
GPGPU-Sim PTX: 4400000 instructions simulated : ctaid=(79,0,0) tid=(127,0,0)
GPGPU-Sim PTX: 4500000 instructions simulated : ctaid=(32,0,0) tid=(63,0,0)
GPGPU-Sim uArch: cycles simulated: 9500  inst.: 4534688 (ipc=477.3) sim_rate=238667 (inst/sec) elapsed = 0:0:00:19 / Tue Apr 16 16:55:45 2019
GPGPU-Sim PTX: 4600000 instructions simulated : ctaid=(103,0,0) tid=(95,0,0)
GPGPU-Sim PTX: 4700000 instructions simulated : ctaid=(59,0,0) tid=(127,0,0)
GPGPU-Sim PTX: 4800000 instructions simulated : ctaid=(12,0,0) tid=(95,0,0)
GPGPU-Sim uArch: cycles simulated: 10000  inst.: 4814080 (ipc=481.4) sim_rate=240704 (inst/sec) elapsed = 0:0:00:20 / Tue Apr 16 16:55:46 2019
GPGPU-Sim PTX: 4900000 instructions simulated : ctaid=(50,0,0) tid=(31,0,0)
GPGPU-Sim PTX: 5000000 instructions simulated : ctaid=(36,0,0) tid=(127,0,0)
GPGPU-Sim PTX: 5100000 instructions simulated : ctaid=(51,0,0) tid=(63,0,0)
GPGPU-Sim uArch: cycles simulated: 10500  inst.: 5116416 (ipc=487.3) sim_rate=243638 (inst/sec) elapsed = 0:0:00:21 / Tue Apr 16 16:55:47 2019
GPGPU-Sim PTX: 5200000 instructions simulated : ctaid=(50,0,0) tid=(63,0,0)
GPGPU-Sim PTX: 5300000 instructions simulated : ctaid=(87,0,0) tid=(127,0,0)
GPGPU-Sim PTX: 5400000 instructions simulated : ctaid=(92,0,0) tid=(31,0,0)
GPGPU-Sim uArch: cycles simulated: 11000  inst.: 5421472 (ipc=492.9) sim_rate=246430 (inst/sec) elapsed = 0:0:00:22 / Tue Apr 16 16:55:48 2019
GPGPU-Sim PTX: 5500000 instructions simulated : ctaid=(33,0,0) tid=(31,0,0)
GPGPU-Sim PTX: 5600000 instructions simulated : ctaid=(60,0,0) tid=(63,0,0)
GPGPU-Sim PTX: 5700000 instructions simulated : ctaid=(37,0,0) tid=(95,0,0)
GPGPU-Sim uArch: cycles simulated: 11500  inst.: 5709952 (ipc=496.5) sim_rate=248258 (inst/sec) elapsed = 0:0:00:23 / Tue Apr 16 16:55:49 2019
GPGPU-Sim PTX: 5800000 instructions simulated : ctaid=(10,0,0) tid=(95,0,0)
GPGPU-Sim PTX: 5900000 instructions simulated : ctaid=(22,0,0) tid=(127,0,0)
GPGPU-Sim PTX: 6000000 instructions simulated : ctaid=(42,0,0) tid=(31,0,0)
GPGPU-Sim uArch: cycles simulated: 12000  inst.: 6002208 (ipc=500.2) sim_rate=250092 (inst/sec) elapsed = 0:0:00:24 / Tue Apr 16 16:55:50 2019
GPGPU-Sim PTX: 6100000 instructions simulated : ctaid=(50,0,0) tid=(95,0,0)
GPGPU-Sim PTX: 6200000 instructions simulated : ctaid=(48,0,0) tid=(63,0,0)
GPGPU-Sim PTX: 6300000 instructions simulated : ctaid=(55,0,0) tid=(95,0,0)
GPGPU-Sim uArch: cycles simulated: 12500  inst.: 6307904 (ipc=504.6) sim_rate=252316 (inst/sec) elapsed = 0:0:00:25 / Tue Apr 16 16:55:51 2019
GPGPU-Sim PTX: 6400000 instructions simulated : ctaid=(12,0,0) tid=(95,0,0)
GPGPU-Sim PTX: 6500000 instructions simulated : ctaid=(95,0,0) tid=(63,0,0)
GPGPU-Sim PTX: 6600000 instructions simulated : ctaid=(80,0,0) tid=(31,0,0)
GPGPU-Sim uArch: cycles simulated: 13000  inst.: 6638176 (ipc=510.6) sim_rate=255314 (inst/sec) elapsed = 0:0:00:26 / Tue Apr 16 16:55:52 2019
GPGPU-Sim PTX: 6700000 instructions simulated : ctaid=(28,0,0) tid=(31,0,0)
GPGPU-Sim PTX: 6800000 instructions simulated : ctaid=(27,0,0) tid=(127,0,0)
GPGPU-Sim PTX: 6900000 instructions simulated : ctaid=(88,0,0) tid=(95,0,0)
GPGPU-Sim uArch: cycles simulated: 13500  inst.: 6941088 (ipc=514.2) sim_rate=257077 (inst/sec) elapsed = 0:0:00:27 / Tue Apr 16 16:55:53 2019
GPGPU-Sim PTX: 7000000 instructions simulated : ctaid=(92,0,0) tid=(95,0,0)
GPGPU-Sim PTX: 7100000 instructions simulated : ctaid=(15,0,0) tid=(63,0,0)
GPGPU-Sim PTX: 7200000 instructions simulated : ctaid=(92,0,0) tid=(95,0,0)
GPGPU-Sim uArch: cycles simulated: 14000  inst.: 7239104 (ipc=517.1) sim_rate=258539 (inst/sec) elapsed = 0:0:00:28 / Tue Apr 16 16:55:54 2019
GPGPU-Sim PTX: 7300000 instructions simulated : ctaid=(98,0,0) tid=(63,0,0)
GPGPU-Sim PTX: 7400000 instructions simulated : ctaid=(13,0,0) tid=(31,0,0)
GPGPU-Sim PTX: 7500000 instructions simulated : ctaid=(8,0,0) tid=(63,0,0)
GPGPU-Sim uArch: cycles simulated: 14500  inst.: 7547456 (ipc=520.5) sim_rate=260257 (inst/sec) elapsed = 0:0:00:29 / Tue Apr 16 16:55:55 2019
GPGPU-Sim PTX: 7600000 instructions simulated : ctaid=(37,0,0) tid=(31,0,0)
GPGPU-Sim PTX: 7700000 instructions simulated : ctaid=(13,0,0) tid=(95,0,0)
GPGPU-Sim PTX: 7800000 instructions simulated : ctaid=(22,0,0) tid=(63,0,0)
GPGPU-Sim uArch: cycles simulated: 15000  inst.: 7850400 (ipc=523.4) sim_rate=261680 (inst/sec) elapsed = 0:0:00:30 / Tue Apr 16 16:55:56 2019
GPGPU-Sim PTX: 7900000 instructions simulated : ctaid=(27,0,0) tid=(31,0,0)
GPGPU-Sim PTX: 8000000 instructions simulated : ctaid=(29,0,0) tid=(63,0,0)
GPGPU-Sim PTX: 8100000 instructions simulated : ctaid=(19,0,0) tid=(63,0,0)
GPGPU-Sim uArch: cycles simulated: 15500  inst.: 8147040 (ipc=525.6) sim_rate=262807 (inst/sec) elapsed = 0:0:00:31 / Tue Apr 16 16:55:57 2019
GPGPU-Sim PTX: 8200000 instructions simulated : ctaid=(17,0,0) tid=(31,0,0)
GPGPU-Sim PTX: 8300000 instructions simulated : ctaid=(26,0,0) tid=(63,0,0)
GPGPU-Sim PTX: 8400000 instructions simulated : ctaid=(70,0,0) tid=(63,0,0)
GPGPU-Sim uArch: cycles simulated: 16000  inst.: 8459008 (ipc=528.7) sim_rate=264344 (inst/sec) elapsed = 0:0:00:32 / Tue Apr 16 16:55:58 2019
GPGPU-Sim PTX: 8500000 instructions simulated : ctaid=(102,0,0) tid=(63,0,0)
GPGPU-Sim PTX: 8600000 instructions simulated : ctaid=(102,0,0) tid=(63,0,0)
GPGPU-Sim PTX: 8700000 instructions simulated : ctaid=(35,0,0) tid=(31,0,0)
GPGPU-Sim uArch: cycles simulated: 16500  inst.: 8758336 (ipc=530.8) sim_rate=265404 (inst/sec) elapsed = 0:0:00:33 / Tue Apr 16 16:55:59 2019
GPGPU-Sim PTX: 8800000 instructions simulated : ctaid=(69,0,0) tid=(31,0,0)
GPGPU-Sim PTX: 8900000 instructions simulated : ctaid=(68,0,0) tid=(31,0,0)
GPGPU-Sim PTX: 9000000 instructions simulated : ctaid=(61,0,0) tid=(31,0,0)
GPGPU-Sim PTX: 9100000 instructions simulated : ctaid=(38,0,0) tid=(63,0,0)
GPGPU-Sim uArch: cycles simulated: 17000  inst.: 9065600 (ipc=533.3) sim_rate=266635 (inst/sec) elapsed = 0:0:00:34 / Tue Apr 16 16:56:00 2019
GPGPU-Sim PTX: 9200000 instructions simulated : ctaid=(20,0,0) tid=(127,0,0)
GPGPU-Sim PTX: 9300000 instructions simulated : ctaid=(67,0,0) tid=(31,0,0)
GPGPU-Sim uArch: cycles simulated: 17500  inst.: 9363264 (ipc=535.0) sim_rate=267521 (inst/sec) elapsed = 0:0:00:35 / Tue Apr 16 16:56:01 2019
GPGPU-Sim PTX: 9400000 instructions simulated : ctaid=(43,0,0) tid=(95,0,0)
GPGPU-Sim PTX: 9500000 instructions simulated : ctaid=(85,0,0) tid=(31,0,0)
GPGPU-Sim PTX: 9600000 instructions simulated : ctaid=(50,0,0) tid=(95,0,0)
GPGPU-Sim uArch: cycles simulated: 18000  inst.: 9650848 (ipc=536.2) sim_rate=268079 (inst/sec) elapsed = 0:0:00:36 / Tue Apr 16 16:56:02 2019
GPGPU-Sim PTX: 9700000 instructions simulated : ctaid=(64,0,0) tid=(127,0,0)
GPGPU-Sim PTX: 9800000 instructions simulated : ctaid=(63,0,0) tid=(95,0,0)
GPGPU-Sim PTX: 9900000 instructions simulated : ctaid=(77,0,0) tid=(31,0,0)
GPGPU-Sim uArch: cycles simulated: 18500  inst.: 9951200 (ipc=537.9) sim_rate=268951 (inst/sec) elapsed = 0:0:00:37 / Tue Apr 16 16:56:03 2019
GPGPU-Sim PTX: 10000000 instructions simulated : ctaid=(11,0,0) tid=(95,0,0)
GPGPU-Sim PTX: 10100000 instructions simulated : ctaid=(49,0,0) tid=(127,0,0)
GPGPU-Sim PTX: 10200000 instructions simulated : ctaid=(17,0,0) tid=(63,0,0)
GPGPU-Sim uArch: cycles simulated: 19000  inst.: 10251072 (ipc=539.5) sim_rate=269765 (inst/sec) elapsed = 0:0:00:38 / Tue Apr 16 16:56:04 2019
GPGPU-Sim PTX: 10300000 instructions simulated : ctaid=(31,0,0) tid=(95,0,0)
GPGPU-Sim PTX: 10400000 instructions simulated : ctaid=(4,0,0) tid=(95,0,0)
GPGPU-Sim PTX: 10500000 instructions simulated : ctaid=(73,0,0) tid=(63,0,0)
GPGPU-Sim uArch: cycles simulated: 19500  inst.: 10539680 (ipc=540.5) sim_rate=270248 (inst/sec) elapsed = 0:0:00:39 / Tue Apr 16 16:56:05 2019
GPGPU-Sim PTX: 10600000 instructions simulated : ctaid=(62,0,0) tid=(127,0,0)
GPGPU-Sim PTX: 10700000 instructions simulated : ctaid=(87,0,0) tid=(127,0,0)
GPGPU-Sim PTX: 10800000 instructions simulated : ctaid=(17,0,0) tid=(63,0,0)
GPGPU-Sim uArch: cycles simulated: 20000  inst.: 10832448 (ipc=541.6) sim_rate=270811 (inst/sec) elapsed = 0:0:00:40 / Tue Apr 16 16:56:06 2019
GPGPU-Sim PTX: 10900000 instructions simulated : ctaid=(95,0,0) tid=(31,0,0)
GPGPU-Sim PTX: 11000000 instructions simulated : ctaid=(35,0,0) tid=(31,0,0)
GPGPU-Sim PTX: 11100000 instructions simulated : ctaid=(47,0,0) tid=(127,0,0)
GPGPU-Sim uArch: cycles simulated: 20500  inst.: 11117920 (ipc=542.3) sim_rate=271168 (inst/sec) elapsed = 0:0:00:41 / Tue Apr 16 16:56:07 2019
GPGPU-Sim PTX: 11200000 instructions simulated : ctaid=(91,0,0) tid=(31,0,0)
GPGPU-Sim PTX: 11300000 instructions simulated : ctaid=(5,0,0) tid=(127,0,0)
GPGPU-Sim PTX: 11400000 instructions simulated : ctaid=(12,0,0) tid=(95,0,0)
GPGPU-Sim uArch: cycles simulated: 21000  inst.: 11418304 (ipc=543.7) sim_rate=271864 (inst/sec) elapsed = 0:0:00:42 / Tue Apr 16 16:56:08 2019
GPGPU-Sim PTX: 11500000 instructions simulated : ctaid=(47,0,0) tid=(63,0,0)
GPGPU-Sim PTX: 11600000 instructions simulated : ctaid=(16,0,0) tid=(127,0,0)
GPGPU-Sim PTX: 11700000 instructions simulated : ctaid=(40,0,0) tid=(95,0,0)
GPGPU-Sim uArch: cycles simulated: 21500  inst.: 11707904 (ipc=544.6) sim_rate=272276 (inst/sec) elapsed = 0:0:00:43 / Tue Apr 16 16:56:09 2019
GPGPU-Sim PTX: 11800000 instructions simulated : ctaid=(44,0,0) tid=(95,0,0)
GPGPU-Sim PTX: 11900000 instructions simulated : ctaid=(19,0,0) tid=(31,0,0)
GPGPU-Sim PTX: 12000000 instructions simulated : ctaid=(5,0,0) tid=(63,0,0)
GPGPU-Sim uArch: cycles simulated: 22000  inst.: 12015136 (ipc=546.1) sim_rate=273071 (inst/sec) elapsed = 0:0:00:44 / Tue Apr 16 16:56:10 2019
GPGPU-Sim PTX: 12100000 instructions simulated : ctaid=(101,0,0) tid=(63,0,0)
GPGPU-Sim PTX: 12200000 instructions simulated : ctaid=(52,0,0) tid=(127,0,0)
GPGPU-Sim PTX: 12300000 instructions simulated : ctaid=(72,0,0) tid=(63,0,0)
GPGPU-Sim uArch: cycles simulated: 22500  inst.: 12329792 (ipc=548.0) sim_rate=273995 (inst/sec) elapsed = 0:0:00:45 / Tue Apr 16 16:56:11 2019
GPGPU-Sim PTX: 12400000 instructions simulated : ctaid=(13,0,0) tid=(127,0,0)
GPGPU-Sim PTX: 12500000 instructions simulated : ctaid=(11,0,0) tid=(63,0,0)
GPGPU-Sim PTX: 12600000 instructions simulated : ctaid=(19,0,0) tid=(95,0,0)
GPGPU-Sim uArch: cycles simulated: 23000  inst.: 12630208 (ipc=549.1) sim_rate=274569 (inst/sec) elapsed = 0:0:00:46 / Tue Apr 16 16:56:12 2019
GPGPU-Sim PTX: 12700000 instructions simulated : ctaid=(83,0,0) tid=(95,0,0)
GPGPU-Sim PTX: 12800000 instructions simulated : ctaid=(39,0,0) tid=(31,0,0)
GPGPU-Sim PTX: 12900000 instructions simulated : ctaid=(43,0,0) tid=(63,0,0)
GPGPU-Sim uArch: cycles simulated: 23500  inst.: 12930080 (ipc=550.2) sim_rate=275108 (inst/sec) elapsed = 0:0:00:47 / Tue Apr 16 16:56:13 2019
GPGPU-Sim PTX: 13000000 instructions simulated : ctaid=(61,0,0) tid=(127,0,0)
GPGPU-Sim PTX: 13100000 instructions simulated : ctaid=(22,0,0) tid=(31,0,0)
GPGPU-Sim PTX: 13200000 instructions simulated : ctaid=(16,0,0) tid=(95,0,0)
GPGPU-Sim uArch: cycles simulated: 24000  inst.: 13208448 (ipc=550.4) sim_rate=275176 (inst/sec) elapsed = 0:0:00:48 / Tue Apr 16 16:56:14 2019
GPGPU-Sim PTX: 13300000 instructions simulated : ctaid=(43,0,0) tid=(95,0,0)
GPGPU-Sim PTX: 13400000 instructions simulated : ctaid=(92,0,0) tid=(31,0,0)
GPGPU-Sim PTX: 13500000 instructions simulated : ctaid=(86,0,0) tid=(63,0,0)
GPGPU-Sim uArch: cycles simulated: 24500  inst.: 13498624 (ipc=551.0) sim_rate=275482 (inst/sec) elapsed = 0:0:00:49 / Tue Apr 16 16:56:15 2019
GPGPU-Sim PTX: 13600000 instructions simulated : ctaid=(0,0,0) tid=(63,0,0)
GPGPU-Sim PTX: 13700000 instructions simulated : ctaid=(42,0,0) tid=(95,0,0)
GPGPU-Sim PTX: 13800000 instructions simulated : ctaid=(56,0,0) tid=(31,0,0)
GPGPU-Sim uArch: cycles simulated: 25000  inst.: 13777504 (ipc=551.1) sim_rate=275550 (inst/sec) elapsed = 0:0:00:50 / Tue Apr 16 16:56:16 2019
GPGPU-Sim PTX: 13900000 instructions simulated : ctaid=(74,0,0) tid=(63,0,0)
GPGPU-Sim PTX: 14000000 instructions simulated : ctaid=(61,0,0) tid=(31,0,0)
GPGPU-Sim PTX: 14100000 instructions simulated : ctaid=(7,0,0) tid=(31,0,0)
GPGPU-Sim uArch: cycles simulated: 25500  inst.: 14077056 (ipc=552.0) sim_rate=276020 (inst/sec) elapsed = 0:0:00:51 / Tue Apr 16 16:56:17 2019
GPGPU-Sim PTX: 14200000 instructions simulated : ctaid=(10,0,0) tid=(63,0,0)
GPGPU-Sim PTX: 14300000 instructions simulated : ctaid=(87,0,0) tid=(31,0,0)
GPGPU-Sim uArch: cycles simulated: 26000  inst.: 14364096 (ipc=552.5) sim_rate=276232 (inst/sec) elapsed = 0:0:00:52 / Tue Apr 16 16:56:18 2019
GPGPU-Sim PTX: 14400000 instructions simulated : ctaid=(29,0,0) tid=(95,0,0)
GPGPU-Sim PTX: 14500000 instructions simulated : ctaid=(46,0,0) tid=(63,0,0)
GPGPU-Sim PTX: 14600000 instructions simulated : ctaid=(36,0,0) tid=(63,0,0)
GPGPU-Sim PTX: 14700000 instructions simulated : ctaid=(5,0,0) tid=(95,0,0)
GPGPU-Sim uArch: cycles simulated: 26500  inst.: 14671552 (ipc=553.6) sim_rate=276821 (inst/sec) elapsed = 0:0:00:53 / Tue Apr 16 16:56:19 2019
GPGPU-Sim PTX: 14800000 instructions simulated : ctaid=(32,0,0) tid=(95,0,0)
GPGPU-Sim PTX: 14900000 instructions simulated : ctaid=(19,0,0) tid=(63,0,0)
GPGPU-Sim PTX: 15000000 instructions simulated : ctaid=(73,0,0) tid=(95,0,0)
GPGPU-Sim uArch: cycles simulated: 27000  inst.: 14964800 (ipc=554.3) sim_rate=277125 (inst/sec) elapsed = 0:0:00:54 / Tue Apr 16 16:56:20 2019
GPGPU-Sim PTX: 15100000 instructions simulated : ctaid=(37,0,0) tid=(63,0,0)
GPGPU-Sim PTX: 15200000 instructions simulated : ctaid=(46,0,0) tid=(31,0,0)
GPGPU-Sim PTX: 15300000 instructions simulated : ctaid=(77,0,0) tid=(95,0,0)
GPGPU-Sim uArch: cycles simulated: 27500  inst.: 15279072 (ipc=555.6) sim_rate=277801 (inst/sec) elapsed = 0:0:00:55 / Tue Apr 16 16:56:21 2019
GPGPU-Sim PTX: 15400000 instructions simulated : ctaid=(117,0,0) tid=(127,0,0)
GPGPU-Sim PTX: 15500000 instructions simulated : ctaid=(83,0,0) tid=(127,0,0)
GPGPU-Sim PTX: 15600000 instructions simulated : ctaid=(104,0,0) tid=(31,0,0)
GPGPU-Sim uArch: cycles simulated: 28000  inst.: 15577088 (ipc=556.3) sim_rate=278162 (inst/sec) elapsed = 0:0:00:56 / Tue Apr 16 16:56:22 2019
GPGPU-Sim PTX: 15700000 instructions simulated : ctaid=(40,0,0) tid=(95,0,0)
GPGPU-Sim PTX: 15800000 instructions simulated : ctaid=(28,0,0) tid=(63,0,0)
GPGPU-Sim PTX: 15900000 instructions simulated : ctaid=(47,0,0) tid=(31,0,0)
GPGPU-Sim PTX: 16000000 instructions simulated : ctaid=(31,0,0) tid=(31,0,0)
GPGPU-Sim PTX: 16100000 instructions simulated : ctaid=(8,0,0) tid=(95,0,0)
GPGPU-Sim uArch: cycles simulated: 29000  inst.: 16156704 (ipc=557.1) sim_rate=283450 (inst/sec) elapsed = 0:0:00:57 / Tue Apr 16 16:56:23 2019
GPGPU-Sim PTX: 16200000 instructions simulated : ctaid=(39,0,0) tid=(31,0,0)
GPGPU-Sim PTX: 16300000 instructions simulated : ctaid=(62,0,0) tid=(31,0,0)
GPGPU-Sim PTX: 16400000 instructions simulated : ctaid=(51,0,0) tid=(95,0,0)
GPGPU-Sim uArch: cycles simulated: 29500  inst.: 16434464 (ipc=557.1) sim_rate=283352 (inst/sec) elapsed = 0:0:00:58 / Tue Apr 16 16:56:24 2019
GPGPU-Sim PTX: 16500000 instructions simulated : ctaid=(56,0,0) tid=(127,0,0)
GPGPU-Sim PTX: 16600000 instructions simulated : ctaid=(78,0,0) tid=(31,0,0)
GPGPU-Sim PTX: 16700000 instructions simulated : ctaid=(68,0,0) tid=(63,0,0)
GPGPU-Sim uArch: cycles simulated: 30000  inst.: 16731008 (ipc=557.7) sim_rate=278850 (inst/sec) elapsed = 0:0:01:00 / Tue Apr 16 16:56:26 2019
GPGPU-Sim PTX: 16800000 instructions simulated : ctaid=(4,0,0) tid=(31,0,0)
GPGPU-Sim PTX: 16900000 instructions simulated : ctaid=(2,0,0) tid=(31,0,0)
GPGPU-Sim PTX: 17000000 instructions simulated : ctaid=(71,0,0) tid=(31,0,0)
GPGPU-Sim uArch: cycles simulated: 30500  inst.: 17033376 (ipc=558.5) sim_rate=279235 (inst/sec) elapsed = 0:0:01:01 / Tue Apr 16 16:56:27 2019
GPGPU-Sim PTX: 17100000 instructions simulated : ctaid=(13,0,0) tid=(31,0,0)
GPGPU-Sim PTX: 17200000 instructions simulated : ctaid=(45,0,0) tid=(63,0,0)
GPGPU-Sim PTX: 17300000 instructions simulated : ctaid=(55,0,0) tid=(127,0,0)
GPGPU-Sim uArch: cycles simulated: 31000  inst.: 17338880 (ipc=559.3) sim_rate=279659 (inst/sec) elapsed = 0:0:01:02 / Tue Apr 16 16:56:28 2019
GPGPU-Sim PTX: 17400000 instructions simulated : ctaid=(33,0,0) tid=(31,0,0)
GPGPU-Sim PTX: 17500000 instructions simulated : ctaid=(49,0,0) tid=(31,0,0)
GPGPU-Sim PTX: 17600000 instructions simulated : ctaid=(76,0,0) tid=(127,0,0)
GPGPU-Sim uArch: cycles simulated: 31500  inst.: 17637184 (ipc=559.9) sim_rate=279955 (inst/sec) elapsed = 0:0:01:03 / Tue Apr 16 16:56:29 2019
GPGPU-Sim PTX: 17700000 instructions simulated : ctaid=(69,0,0) tid=(127,0,0)
GPGPU-Sim PTX: 17800000 instructions simulated : ctaid=(17,0,0) tid=(127,0,0)
GPGPU-Sim PTX: 17900000 instructions simulated : ctaid=(84,0,0) tid=(127,0,0)
GPGPU-Sim PTX: 18000000 instructions simulated : ctaid=(83,0,0) tid=(127,0,0)
GPGPU-Sim uArch: cycles simulated: 32000  inst.: 17964608 (ipc=561.4) sim_rate=280697 (inst/sec) elapsed = 0:0:01:04 / Tue Apr 16 16:56:30 2019
GPGPU-Sim PTX: 18100000 instructions simulated : ctaid=(87,0,0) tid=(31,0,0)
GPGPU-Sim PTX: 18200000 instructions simulated : ctaid=(44,0,0) tid=(31,0,0)
GPGPU-Sim uArch: cycles simulated: 32500  inst.: 18248704 (ipc=561.5) sim_rate=280749 (inst/sec) elapsed = 0:0:01:05 / Tue Apr 16 16:56:31 2019
GPGPU-Sim PTX: 18300000 instructions simulated : ctaid=(30,0,0) tid=(127,0,0)
GPGPU-Sim PTX: 18400000 instructions simulated : ctaid=(36,0,0) tid=(95,0,0)
GPGPU-Sim PTX: 18500000 instructions simulated : ctaid=(45,0,0) tid=(63,0,0)
GPGPU-Sim uArch: cycles simulated: 33000  inst.: 18529312 (ipc=561.5) sim_rate=280747 (inst/sec) elapsed = 0:0:01:06 / Tue Apr 16 16:56:32 2019
GPGPU-Sim PTX: 18600000 instructions simulated : ctaid=(1,0,0) tid=(63,0,0)
GPGPU-Sim PTX: 18700000 instructions simulated : ctaid=(35,0,0) tid=(95,0,0)
GPGPU-Sim PTX: 18800000 instructions simulated : ctaid=(20,0,0) tid=(95,0,0)
GPGPU-Sim PTX: 18900000 instructions simulated : ctaid=(51,0,0) tid=(63,0,0)
GPGPU-Sim PTX: 19000000 instructions simulated : ctaid=(38,0,0) tid=(95,0,0)
GPGPU-Sim PTX: 19100000 instructions simulated : ctaid=(56,0,0) tid=(63,0,0)
GPGPU-Sim uArch: cycles simulated: 34000  inst.: 19108320 (ipc=562.0) sim_rate=285198 (inst/sec) elapsed = 0:0:01:07 / Tue Apr 16 16:56:33 2019
GPGPU-Sim PTX: 19200000 instructions simulated : ctaid=(41,0,0) tid=(63,0,0)
GPGPU-Sim PTX: 19300000 instructions simulated : ctaid=(30,0,0) tid=(95,0,0)
GPGPU-Sim PTX: 19400000 instructions simulated : ctaid=(51,0,0) tid=(31,0,0)
GPGPU-Sim uArch: cycles simulated: 34500  inst.: 19384928 (ipc=561.9) sim_rate=285072 (inst/sec) elapsed = 0:0:01:08 / Tue Apr 16 16:56:34 2019
GPGPU-Sim PTX: 19500000 instructions simulated : ctaid=(16,0,0) tid=(127,0,0)
GPGPU-Sim PTX: 19600000 instructions simulated : ctaid=(59,0,0) tid=(127,0,0)
GPGPU-Sim PTX: 19700000 instructions simulated : ctaid=(65,0,0) tid=(127,0,0)
GPGPU-Sim uArch: cycles simulated: 35000  inst.: 19677408 (ipc=562.2) sim_rate=285179 (inst/sec) elapsed = 0:0:01:09 / Tue Apr 16 16:56:35 2019
GPGPU-Sim PTX: 19800000 instructions simulated : ctaid=(26,0,0) tid=(63,0,0)
GPGPU-Sim PTX: 19900000 instructions simulated : ctaid=(74,0,0) tid=(127,0,0)
GPGPU-Sim PTX: 20000000 instructions simulated : ctaid=(89,0,0) tid=(31,0,0)
GPGPU-Sim uArch: cycles simulated: 35500  inst.: 19970784 (ipc=562.6) sim_rate=285296 (inst/sec) elapsed = 0:0:01:10 / Tue Apr 16 16:56:36 2019
GPGPU-Sim PTX: 20100000 instructions simulated : ctaid=(25,0,0) tid=(63,0,0)
GPGPU-Sim PTX: 20200000 instructions simulated : ctaid=(35,0,0) tid=(127,0,0)
GPGPU-Sim uArch: cycles simulated: 36000  inst.: 20261824 (ipc=562.8) sim_rate=285377 (inst/sec) elapsed = 0:0:01:11 / Tue Apr 16 16:56:37 2019
GPGPU-Sim PTX: 20300000 instructions simulated : ctaid=(0,0,0) tid=(31,0,0)
GPGPU-Sim PTX: 20400000 instructions simulated : ctaid=(3,0,0) tid=(95,0,0)
GPGPU-Sim PTX: 20500000 instructions simulated : ctaid=(52,0,0) tid=(31,0,0)
GPGPU-Sim uArch: cycles simulated: 36500  inst.: 20559552 (ipc=563.3) sim_rate=285549 (inst/sec) elapsed = 0:0:01:12 / Tue Apr 16 16:56:38 2019
GPGPU-Sim PTX: 20600000 instructions simulated : ctaid=(71,0,0) tid=(127,0,0)
GPGPU-Sim PTX: 20700000 instructions simulated : ctaid=(101,0,0) tid=(95,0,0)
GPGPU-Sim PTX: 20800000 instructions simulated : ctaid=(57,0,0) tid=(31,0,0)
GPGPU-Sim uArch: cycles simulated: 37000  inst.: 20850432 (ipc=563.5) sim_rate=285622 (inst/sec) elapsed = 0:0:01:13 / Tue Apr 16 16:56:39 2019
GPGPU-Sim PTX: 20900000 instructions simulated : ctaid=(26,0,0) tid=(95,0,0)
GPGPU-Sim PTX: 21000000 instructions simulated : ctaid=(47,0,0) tid=(95,0,0)
GPGPU-Sim PTX: 21100000 instructions simulated : ctaid=(42,0,0) tid=(127,0,0)
GPGPU-Sim uArch: cycles simulated: 37500  inst.: 21138144 (ipc=563.7) sim_rate=285650 (inst/sec) elapsed = 0:0:01:14 / Tue Apr 16 16:56:40 2019
GPGPU-Sim PTX: 21200000 instructions simulated : ctaid=(16,0,0) tid=(63,0,0)
GPGPU-Sim PTX: 21300000 instructions simulated : ctaid=(80,0,0) tid=(127,0,0)
GPGPU-Sim PTX: 21400000 instructions simulated : ctaid=(33,0,0) tid=(127,0,0)
GPGPU-Sim uArch: cycles simulated: 38000  inst.: 21426240 (ipc=563.8) sim_rate=285683 (inst/sec) elapsed = 0:0:01:15 / Tue Apr 16 16:56:41 2019
GPGPU-Sim PTX: 21500000 instructions simulated : ctaid=(35,0,0) tid=(63,0,0)
GPGPU-Sim PTX: 21600000 instructions simulated : ctaid=(15,0,0) tid=(95,0,0)
GPGPU-Sim PTX: 21700000 instructions simulated : ctaid=(90,0,0) tid=(95,0,0)
GPGPU-Sim uArch: cycles simulated: 38500  inst.: 21723808 (ipc=564.3) sim_rate=285839 (inst/sec) elapsed = 0:0:01:16 / Tue Apr 16 16:56:42 2019
GPGPU-Sim PTX: 21800000 instructions simulated : ctaid=(85,0,0) tid=(31,0,0)
GPGPU-Sim PTX: 21900000 instructions simulated : ctaid=(10,0,0) tid=(95,0,0)
GPGPU-Sim PTX: 22000000 instructions simulated : ctaid=(25,0,0) tid=(31,0,0)
GPGPU-Sim uArch: cycles simulated: 39000  inst.: 22000544 (ipc=564.1) sim_rate=285721 (inst/sec) elapsed = 0:0:01:17 / Tue Apr 16 16:56:43 2019
GPGPU-Sim PTX: 22100000 instructions simulated : ctaid=(12,0,0) tid=(127,0,0)
GPGPU-Sim PTX: 22200000 instructions simulated : ctaid=(69,0,0) tid=(95,0,0)
GPGPU-Sim PTX: 22300000 instructions simulated : ctaid=(62,0,0) tid=(31,0,0)
GPGPU-Sim uArch: cycles simulated: 39500  inst.: 22285568 (ipc=564.2) sim_rate=285712 (inst/sec) elapsed = 0:0:01:18 / Tue Apr 16 16:56:44 2019
GPGPU-Sim PTX: 22400000 instructions simulated : ctaid=(29,0,0) tid=(127,0,0)
GPGPU-Sim PTX: 22500000 instructions simulated : ctaid=(38,0,0) tid=(63,0,0)
GPGPU-Sim PTX: 22600000 instructions simulated : ctaid=(42,0,0) tid=(63,0,0)
GPGPU-Sim uArch: cycles simulated: 40000  inst.: 22577600 (ipc=564.4) sim_rate=285792 (inst/sec) elapsed = 0:0:01:19 / Tue Apr 16 16:56:45 2019
GPGPU-Sim PTX: 22700000 instructions simulated : ctaid=(61,0,0) tid=(95,0,0)
GPGPU-Sim PTX: 22800000 instructions simulated : ctaid=(27,0,0) tid=(127,0,0)
GPGPU-Sim PTX: 22900000 instructions simulated : ctaid=(0,0,0) tid=(63,0,0)
GPGPU-Sim uArch: cycles simulated: 40500  inst.: 22866976 (ipc=564.6) sim_rate=285837 (inst/sec) elapsed = 0:0:01:20 / Tue Apr 16 16:56:46 2019
GPGPU-Sim PTX: 23000000 instructions simulated : ctaid=(12,0,0) tid=(95,0,0)
GPGPU-Sim PTX: 23100000 instructions simulated : ctaid=(68,0,0) tid=(95,0,0)
GPGPU-Sim uArch: cycles simulated: 41000  inst.: 23147488 (ipc=564.6) sim_rate=285771 (inst/sec) elapsed = 0:0:01:21 / Tue Apr 16 16:56:47 2019
GPGPU-Sim PTX: 23200000 instructions simulated : ctaid=(29,0,0) tid=(127,0,0)
GPGPU-Sim PTX: 23300000 instructions simulated : ctaid=(10,0,0) tid=(127,0,0)
GPGPU-Sim PTX: 23400000 instructions simulated : ctaid=(45,0,0) tid=(31,0,0)
GPGPU-Sim uArch: cycles simulated: 41500  inst.: 23443936 (ipc=564.9) sim_rate=285901 (inst/sec) elapsed = 0:0:01:22 / Tue Apr 16 16:56:48 2019
GPGPU-Sim PTX: 23500000 instructions simulated : ctaid=(98,0,0) tid=(95,0,0)
GPGPU-Sim PTX: 23600000 instructions simulated : ctaid=(37,0,0) tid=(95,0,0)
GPGPU-Sim PTX: 23700000 instructions simulated : ctaid=(29,0,0) tid=(31,0,0)
GPGPU-Sim PTX: 23800000 instructions simulated : ctaid=(78,0,0) tid=(95,0,0)
GPGPU-Sim PTX: 23900000 instructions simulated : ctaid=(5,0,0) tid=(31,0,0)
GPGPU-Sim PTX: 24000000 instructions simulated : ctaid=(1,0,0) tid=(63,0,0)
GPGPU-Sim uArch: cycles simulated: 42500  inst.: 24014624 (ipc=565.0) sim_rate=289332 (inst/sec) elapsed = 0:0:01:23 / Tue Apr 16 16:56:49 2019
GPGPU-Sim PTX: 24100000 instructions simulated : ctaid=(85,0,0) tid=(95,0,0)
GPGPU-Sim PTX: 24200000 instructions simulated : ctaid=(57,0,0) tid=(127,0,0)
GPGPU-Sim PTX: 24300000 instructions simulated : ctaid=(57,0,0) tid=(31,0,0)
GPGPU-Sim uArch: cycles simulated: 43000  inst.: 24314080 (ipc=565.4) sim_rate=289453 (inst/sec) elapsed = 0:0:01:24 / Tue Apr 16 16:56:50 2019
GPGPU-Sim PTX: 24400000 instructions simulated : ctaid=(7,0,0) tid=(63,0,0)
GPGPU-Sim PTX: 24500000 instructions simulated : ctaid=(43,0,0) tid=(95,0,0)
GPGPU-Sim PTX: 24600000 instructions simulated : ctaid=(57,0,0) tid=(31,0,0)
GPGPU-Sim uArch: cycles simulated: 43500  inst.: 24604000 (ipc=565.6) sim_rate=289458 (inst/sec) elapsed = 0:0:01:25 / Tue Apr 16 16:56:51 2019
GPGPU-Sim PTX: 24700000 instructions simulated : ctaid=(100,0,0) tid=(31,0,0)
GPGPU-Sim PTX: 24800000 instructions simulated : ctaid=(86,0,0) tid=(95,0,0)
GPGPU-Sim PTX: 24900000 instructions simulated : ctaid=(5,0,0) tid=(95,0,0)
GPGPU-Sim uArch: cycles simulated: 44000  inst.: 24911488 (ipc=566.2) sim_rate=289668 (inst/sec) elapsed = 0:0:01:26 / Tue Apr 16 16:56:52 2019
GPGPU-Sim PTX: 25000000 instructions simulated : ctaid=(37,0,0) tid=(63,0,0)
GPGPU-Sim PTX: 25100000 instructions simulated : ctaid=(51,0,0) tid=(63,0,0)
GPGPU-Sim PTX: 25200000 instructions simulated : ctaid=(9,0,0) tid=(31,0,0)
GPGPU-Sim uArch: cycles simulated: 44500  inst.: 25192448 (ipc=566.1) sim_rate=289568 (inst/sec) elapsed = 0:0:01:27 / Tue Apr 16 16:56:53 2019
GPGPU-Sim PTX: 25300000 instructions simulated : ctaid=(111,0,0) tid=(63,0,0)
GPGPU-Sim PTX: 25400000 instructions simulated : ctaid=(57,0,0) tid=(31,0,0)
GPGPU-Sim PTX: 25500000 instructions simulated : ctaid=(48,0,0) tid=(31,0,0)
GPGPU-Sim uArch: cycles simulated: 45000  inst.: 25481792 (ipc=566.3) sim_rate=289565 (inst/sec) elapsed = 0:0:01:28 / Tue Apr 16 16:56:54 2019
GPGPU-Sim PTX: 25600000 instructions simulated : ctaid=(45,0,0) tid=(31,0,0)
GPGPU-Sim PTX: 25700000 instructions simulated : ctaid=(6,0,0) tid=(127,0,0)
GPGPU-Sim uArch: cycles simulated: 45500  inst.: 25762784 (ipc=566.2) sim_rate=289469 (inst/sec) elapsed = 0:0:01:29 / Tue Apr 16 16:56:55 2019
GPGPU-Sim PTX: 25800000 instructions simulated : ctaid=(76,0,0) tid=(95,0,0)
GPGPU-Sim PTX: 25900000 instructions simulated : ctaid=(69,0,0) tid=(95,0,0)
GPGPU-Sim PTX: 26000000 instructions simulated : ctaid=(28,0,0) tid=(95,0,0)
GPGPU-Sim uArch: cycles simulated: 46000  inst.: 26023456 (ipc=565.7) sim_rate=289149 (inst/sec) elapsed = 0:0:01:30 / Tue Apr 16 16:56:56 2019
GPGPU-Sim PTX: 26100000 instructions simulated : ctaid=(87,0,0) tid=(31,0,0)
GPGPU-Sim PTX: 26200000 instructions simulated : ctaid=(9,0,0) tid=(31,0,0)
GPGPU-Sim PTX: 26300000 instructions simulated : ctaid=(41,0,0) tid=(127,0,0)
GPGPU-Sim uArch: cycles simulated: 46500  inst.: 26311168 (ipc=565.8) sim_rate=289133 (inst/sec) elapsed = 0:0:01:31 / Tue Apr 16 16:56:57 2019
GPGPU-Sim PTX: 26400000 instructions simulated : ctaid=(41,0,0) tid=(95,0,0)
GPGPU-Sim PTX: 26500000 instructions simulated : ctaid=(45,0,0) tid=(63,0,0)
GPGPU-Sim PTX: 26600000 instructions simulated : ctaid=(33,0,0) tid=(127,0,0)
GPGPU-Sim uArch: cycles simulated: 47000  inst.: 26591872 (ipc=565.8) sim_rate=289042 (inst/sec) elapsed = 0:0:01:32 / Tue Apr 16 16:56:58 2019
GPGPU-Sim PTX: 26700000 instructions simulated : ctaid=(64,0,0) tid=(95,0,0)
GPGPU-Sim PTX: 26800000 instructions simulated : ctaid=(34,0,0) tid=(63,0,0)
GPGPU-Sim PTX: 26900000 instructions simulated : ctaid=(42,0,0) tid=(63,0,0)
GPGPU-Sim uArch: cycles simulated: 47500  inst.: 26918208 (ipc=566.7) sim_rate=289443 (inst/sec) elapsed = 0:0:01:33 / Tue Apr 16 16:56:59 2019
GPGPU-Sim PTX: 27000000 instructions simulated : ctaid=(7,0,0) tid=(31,0,0)
GPGPU-Sim PTX: 27100000 instructions simulated : ctaid=(38,0,0) tid=(127,0,0)
GPGPU-Sim PTX: 27200000 instructions simulated : ctaid=(30,0,0) tid=(31,0,0)
GPGPU-Sim uArch: cycles simulated: 48000  inst.: 27237792 (ipc=567.5) sim_rate=289763 (inst/sec) elapsed = 0:0:01:34 / Tue Apr 16 16:57:00 2019
GPGPU-Sim PTX: 27300000 instructions simulated : ctaid=(3,0,0) tid=(31,0,0)
GPGPU-Sim PTX: 27400000 instructions simulated : ctaid=(24,0,0) tid=(95,0,0)
GPGPU-Sim PTX: 27500000 instructions simulated : ctaid=(37,0,0) tid=(31,0,0)
GPGPU-Sim uArch: cycles simulated: 48500  inst.: 27542688 (ipc=567.9) sim_rate=289923 (inst/sec) elapsed = 0:0:01:35 / Tue Apr 16 16:57:01 2019
GPGPU-Sim PTX: 27600000 instructions simulated : ctaid=(38,0,0) tid=(95,0,0)
GPGPU-Sim PTX: 27700000 instructions simulated : ctaid=(41,0,0) tid=(127,0,0)
GPGPU-Sim PTX: 27800000 instructions simulated : ctaid=(7,0,0) tid=(63,0,0)
GPGPU-Sim uArch: cycles simulated: 49000  inst.: 27836992 (ipc=568.1) sim_rate=289968 (inst/sec) elapsed = 0:0:01:36 / Tue Apr 16 16:57:02 2019
GPGPU-Sim PTX: 27900000 instructions simulated : ctaid=(78,0,0) tid=(31,0,0)
GPGPU-Sim PTX: 28000000 instructions simulated : ctaid=(86,0,0) tid=(63,0,0)
GPGPU-Sim PTX: 28100000 instructions simulated : ctaid=(2,0,0) tid=(95,0,0)
GPGPU-Sim uArch: cycles simulated: 49500  inst.: 28117472 (ipc=568.0) sim_rate=289870 (inst/sec) elapsed = 0:0:01:37 / Tue Apr 16 16:57:03 2019
GPGPU-Sim PTX: 28200000 instructions simulated : ctaid=(61,0,0) tid=(95,0,0)
GPGPU-Sim PTX: 28300000 instructions simulated : ctaid=(5,0,0) tid=(127,0,0)
GPGPU-Sim PTX: 28400000 instructions simulated : ctaid=(80,0,0) tid=(95,0,0)
GPGPU-Sim uArch: cycles simulated: 50000  inst.: 28418944 (ipc=568.4) sim_rate=289989 (inst/sec) elapsed = 0:0:01:38 / Tue Apr 16 16:57:04 2019
GPGPU-Sim PTX: 28500000 instructions simulated : ctaid=(16,0,0) tid=(31,0,0)
GPGPU-Sim PTX: 28600000 instructions simulated : ctaid=(49,0,0) tid=(31,0,0)
GPGPU-Sim PTX: 28700000 instructions simulated : ctaid=(16,0,0) tid=(63,0,0)
GPGPU-Sim uArch: cycles simulated: 50500  inst.: 28704800 (ipc=568.4) sim_rate=289947 (inst/sec) elapsed = 0:0:01:39 / Tue Apr 16 16:57:05 2019
GPGPU-Sim PTX: 28800000 instructions simulated : ctaid=(18,0,0) tid=(31,0,0)
GPGPU-Sim PTX: 28900000 instructions simulated : ctaid=(51,0,0) tid=(31,0,0)
GPGPU-Sim PTX: 29000000 instructions simulated : ctaid=(73,0,0) tid=(63,0,0)
GPGPU-Sim uArch: cycles simulated: 51000  inst.: 29003488 (ipc=568.7) sim_rate=290034 (inst/sec) elapsed = 0:0:01:40 / Tue Apr 16 16:57:06 2019
GPGPU-Sim PTX: 29100000 instructions simulated : ctaid=(85,0,0) tid=(31,0,0)
GPGPU-Sim PTX: 29200000 instructions simulated : ctaid=(21,0,0) tid=(31,0,0)
GPGPU-Sim PTX: 29300000 instructions simulated : ctaid=(7,0,0) tid=(95,0,0)
GPGPU-Sim uArch: cycles simulated: 51500  inst.: 29293216 (ipc=568.8) sim_rate=290031 (inst/sec) elapsed = 0:0:01:41 / Tue Apr 16 16:57:07 2019
GPGPU-Sim PTX: 29400000 instructions simulated : ctaid=(117,0,0) tid=(31,0,0)
GPGPU-Sim PTX: 29500000 instructions simulated : ctaid=(0,0,0) tid=(63,0,0)
GPGPU-Sim PTX: 29600000 instructions simulated : ctaid=(38,0,0) tid=(63,0,0)
GPGPU-Sim uArch: cycles simulated: 52000  inst.: 29590560 (ipc=569.0) sim_rate=290103 (inst/sec) elapsed = 0:0:01:42 / Tue Apr 16 16:57:08 2019
GPGPU-Sim PTX: 29700000 instructions simulated : ctaid=(89,0,0) tid=(95,0,0)
GPGPU-Sim PTX: 29800000 instructions simulated : ctaid=(34,0,0) tid=(31,0,0)
GPGPU-Sim PTX: 29900000 instructions simulated : ctaid=(115,0,0) tid=(63,0,0)
GPGPU-Sim uArch: cycles simulated: 52500  inst.: 29884736 (ipc=569.2) sim_rate=290143 (inst/sec) elapsed = 0:0:01:43 / Tue Apr 16 16:57:09 2019
GPGPU-Sim PTX: 30000000 instructions simulated : ctaid=(8,0,0) tid=(31,0,0)
GPGPU-Sim PTX: 30100000 instructions simulated : ctaid=(47,0,0) tid=(31,0,0)
GPGPU-Sim PTX: 30200000 instructions simulated : ctaid=(15,0,0) tid=(95,0,0)
GPGPU-Sim uArch: cycles simulated: 53000  inst.: 30168832 (ipc=569.2) sim_rate=290084 (inst/sec) elapsed = 0:0:01:44 / Tue Apr 16 16:57:10 2019
GPGPU-Sim PTX: 30300000 instructions simulated : ctaid=(25,0,0) tid=(63,0,0)
GPGPU-Sim PTX: 30400000 instructions simulated : ctaid=(42,0,0) tid=(31,0,0)
GPGPU-Sim PTX: 30500000 instructions simulated : ctaid=(113,0,0) tid=(31,0,0)
GPGPU-Sim PTX: 30600000 instructions simulated : ctaid=(93,0,0) tid=(95,0,0)
GPGPU-Sim PTX: 30700000 instructions simulated : ctaid=(9,0,0) tid=(31,0,0)
GPGPU-Sim uArch: cycles simulated: 54000  inst.: 30720576 (ipc=568.9) sim_rate=292576 (inst/sec) elapsed = 0:0:01:45 / Tue Apr 16 16:57:11 2019
GPGPU-Sim PTX: 30800000 instructions simulated : ctaid=(89,0,0) tid=(31,0,0)
GPGPU-Sim PTX: 30900000 instructions simulated : ctaid=(25,0,0) tid=(95,0,0)
GPGPU-Sim PTX: 31000000 instructions simulated : ctaid=(22,0,0) tid=(127,0,0)
GPGPU-Sim uArch: cycles simulated: 54500  inst.: 31017952 (ipc=569.1) sim_rate=292622 (inst/sec) elapsed = 0:0:01:46 / Tue Apr 16 16:57:12 2019
GPGPU-Sim PTX: 31100000 instructions simulated : ctaid=(34,0,0) tid=(63,0,0)
GPGPU-Sim PTX: 31200000 instructions simulated : ctaid=(24,0,0) tid=(63,0,0)
GPGPU-Sim PTX: 31300000 instructions simulated : ctaid=(70,0,0) tid=(95,0,0)
GPGPU-Sim uArch: cycles simulated: 55000  inst.: 31313600 (ipc=569.3) sim_rate=292650 (inst/sec) elapsed = 0:0:01:47 / Tue Apr 16 16:57:13 2019
GPGPU-Sim PTX: 31400000 instructions simulated : ctaid=(52,0,0) tid=(95,0,0)
GPGPU-Sim PTX: 31500000 instructions simulated : ctaid=(75,0,0) tid=(31,0,0)
GPGPU-Sim PTX: 31600000 instructions simulated : ctaid=(19,0,0) tid=(127,0,0)
GPGPU-Sim uArch: cycles simulated: 55500  inst.: 31610016 (ipc=569.5) sim_rate=292685 (inst/sec) elapsed = 0:0:01:48 / Tue Apr 16 16:57:14 2019
GPGPU-Sim PTX: 31700000 instructions simulated : ctaid=(5,0,0) tid=(31,0,0)
GPGPU-Sim PTX: 31800000 instructions simulated : ctaid=(5,0,0) tid=(127,0,0)
GPGPU-Sim PTX: 31900000 instructions simulated : ctaid=(8,0,0) tid=(31,0,0)
GPGPU-Sim uArch: cycles simulated: 56000  inst.: 31894336 (ipc=569.5) sim_rate=292608 (inst/sec) elapsed = 0:0:01:49 / Tue Apr 16 16:57:15 2019
GPGPU-Sim PTX: 32000000 instructions simulated : ctaid=(22,0,0) tid=(127,0,0)
GPGPU-Sim PTX: 32100000 instructions simulated : ctaid=(17,0,0) tid=(95,0,0)
GPGPU-Sim PTX: 32200000 instructions simulated : ctaid=(61,0,0) tid=(63,0,0)
GPGPU-Sim uArch: cycles simulated: 56500  inst.: 32189280 (ipc=569.7) sim_rate=292629 (inst/sec) elapsed = 0:0:01:50 / Tue Apr 16 16:57:16 2019
GPGPU-Sim PTX: 32300000 instructions simulated : ctaid=(31,0,0) tid=(31,0,0)
GPGPU-Sim PTX: 32400000 instructions simulated : ctaid=(80,0,0) tid=(31,0,0)
GPGPU-Sim PTX: 32500000 instructions simulated : ctaid=(26,0,0) tid=(63,0,0)
GPGPU-Sim uArch: cycles simulated: 57000  inst.: 32475904 (ipc=569.8) sim_rate=292575 (inst/sec) elapsed = 0:0:01:51 / Tue Apr 16 16:57:17 2019
GPGPU-Sim PTX: 32600000 instructions simulated : ctaid=(15,0,0) tid=(127,0,0)
GPGPU-Sim PTX: 32700000 instructions simulated : ctaid=(16,0,0) tid=(31,0,0)
GPGPU-Sim uArch: cycles simulated: 57500  inst.: 32757696 (ipc=569.7) sim_rate=292479 (inst/sec) elapsed = 0:0:01:52 / Tue Apr 16 16:57:18 2019
GPGPU-Sim PTX: 32800000 instructions simulated : ctaid=(8,0,0) tid=(127,0,0)
GPGPU-Sim PTX: 32900000 instructions simulated : ctaid=(48,0,0) tid=(31,0,0)
GPGPU-Sim PTX: 33000000 instructions simulated : ctaid=(34,0,0) tid=(127,0,0)
GPGPU-Sim uArch: cycles simulated: 58000  inst.: 33048032 (ipc=569.8) sim_rate=292460 (inst/sec) elapsed = 0:0:01:53 / Tue Apr 16 16:57:19 2019
GPGPU-Sim PTX: 33100000 instructions simulated : ctaid=(74,0,0) tid=(63,0,0)
GPGPU-Sim PTX: 33200000 instructions simulated : ctaid=(70,0,0) tid=(95,0,0)
GPGPU-Sim PTX: 33300000 instructions simulated : ctaid=(67,0,0) tid=(63,0,0)
GPGPU-Sim PTX: 33400000 instructions simulated : ctaid=(58,0,0) tid=(31,0,0)
GPGPU-Sim PTX: 33500000 instructions simulated : ctaid=(48,0,0) tid=(127,0,0)
GPGPU-Sim PTX: 33600000 instructions simulated : ctaid=(11,0,0) tid=(31,0,0)
GPGPU-Sim uArch: cycles simulated: 59000  inst.: 33579584 (ipc=569.1) sim_rate=294557 (inst/sec) elapsed = 0:0:01:54 / Tue Apr 16 16:57:20 2019
GPGPU-Sim PTX: 33700000 instructions simulated : ctaid=(4,0,0) tid=(127,0,0)
GPGPU-Sim PTX: 33800000 instructions simulated : ctaid=(4,0,0) tid=(63,0,0)
GPGPU-Sim uArch: cycles simulated: 59500  inst.: 33845088 (ipc=568.8) sim_rate=294305 (inst/sec) elapsed = 0:0:01:55 / Tue Apr 16 16:57:21 2019
GPGPU-Sim PTX: 33900000 instructions simulated : ctaid=(14,0,0) tid=(63,0,0)
GPGPU-Sim PTX: 34000000 instructions simulated : ctaid=(36,0,0) tid=(63,0,0)
GPGPU-Sim PTX: 34100000 instructions simulated : ctaid=(54,0,0) tid=(63,0,0)
GPGPU-Sim uArch: cycles simulated: 60000  inst.: 34126848 (ipc=568.8) sim_rate=294196 (inst/sec) elapsed = 0:0:01:56 / Tue Apr 16 16:57:22 2019
GPGPU-Sim PTX: 34200000 instructions simulated : ctaid=(39,0,0) tid=(63,0,0)
GPGPU-Sim PTX: 34300000 instructions simulated : ctaid=(17,0,0) tid=(63,0,0)
GPGPU-Sim PTX: 34400000 instructions simulated : ctaid=(89,0,0) tid=(63,0,0)
GPGPU-Sim uArch: cycles simulated: 60500  inst.: 34402496 (ipc=568.6) sim_rate=294038 (inst/sec) elapsed = 0:0:01:57 / Tue Apr 16 16:57:23 2019
GPGPU-Sim PTX: 34500000 instructions simulated : ctaid=(70,0,0) tid=(31,0,0)
GPGPU-Sim PTX: 34600000 instructions simulated : ctaid=(2,0,0) tid=(63,0,0)
GPGPU-Sim PTX: 34700000 instructions simulated : ctaid=(45,0,0) tid=(63,0,0)
GPGPU-Sim uArch: cycles simulated: 61000  inst.: 34691936 (ipc=568.7) sim_rate=293999 (inst/sec) elapsed = 0:0:01:58 / Tue Apr 16 16:57:24 2019
GPGPU-Sim PTX: 34800000 instructions simulated : ctaid=(9,0,0) tid=(31,0,0)
GPGPU-Sim PTX: 34900000 instructions simulated : ctaid=(88,0,0) tid=(63,0,0)
GPGPU-Sim uArch: cycles simulated: 61500  inst.: 34931872 (ipc=568.0) sim_rate=293545 (inst/sec) elapsed = 0:0:01:59 / Tue Apr 16 16:57:25 2019
GPGPU-Sim uArch: Shader 3 finished CTA #0 (61541,0), 7 CTAs running
GPGPU-Sim uArch: core:  3, cta: 0 initialized @(61542,0)
GPGPU-Sim PTX: 35000000 instructions simulated : ctaid=(72,0,0) tid=(31,0,0)
GPGPU-Sim PTX: 35100000 instructions simulated : ctaid=(31,0,0) tid=(31,0,0)
GPGPU-Sim PTX: 35200000 instructions simulated : ctaid=(7,0,0) tid=(31,0,0)
GPGPU-Sim PTX: 35300000 instructions simulated : ctaid=(11,0,0) tid=(63,0,0)
GPGPU-Sim PTX: 35400000 instructions simulated : ctaid=(101,0,0) tid=(31,0,0)
GPGPU-Sim uArch: cycles simulated: 62500  inst.: 35460288 (ipc=567.4) sim_rate=295502 (inst/sec) elapsed = 0:0:02:00 / Tue Apr 16 16:57:26 2019
GPGPU-Sim PTX: 35500000 instructions simulated : ctaid=(108,0,0) tid=(63,0,0)
GPGPU-Sim PTX: 35600000 instructions simulated : ctaid=(74,0,0) tid=(95,0,0)
GPGPU-Sim PTX: 35700000 instructions simulated : ctaid=(23,0,0) tid=(63,0,0)
GPGPU-Sim uArch: cycles simulated: 63000  inst.: 35729536 (ipc=567.1) sim_rate=295285 (inst/sec) elapsed = 0:0:02:01 / Tue Apr 16 16:57:27 2019
GPGPU-Sim uArch: Shader 11 finished CTA #0 (63042,0), 7 CTAs running
GPGPU-Sim uArch: core: 11, cta: 0 initialized @(63043,0)
GPGPU-Sim PTX: 35800000 instructions simulated : ctaid=(121,0,0) tid=(127,0,0)
GPGPU-Sim uArch: Shader 5 finished CTA #0 (63203,0), 7 CTAs running
GPGPU-Sim uArch: core:  5, cta: 0 initialized @(63204,0)
GPGPU-Sim PTX: 35900000 instructions simulated : ctaid=(48,0,0) tid=(63,0,0)
GPGPU-Sim uArch: Shader 0 finished CTA #0 (63335,0), 7 CTAs running
GPGPU-Sim uArch: core:  0, cta: 0 initialized @(63336,0)
GPGPU-Sim PTX: 36000000 instructions simulated : ctaid=(61,0,0) tid=(31,0,0)
GPGPU-Sim uArch: cycles simulated: 63500  inst.: 36015008 (ipc=567.2) sim_rate=295204 (inst/sec) elapsed = 0:0:02:02 / Tue Apr 16 16:57:28 2019
GPGPU-Sim uArch: Shader 7 finished CTA #0 (63541,0), 7 CTAs running
GPGPU-Sim uArch: core:  7, cta: 0 initialized @(63542,0)
GPGPU-Sim PTX: 36100000 instructions simulated : ctaid=(102,0,0) tid=(95,0,0)
GPGPU-Sim uArch: Shader 1 finished CTA #0 (63743,0), 7 CTAs running
GPGPU-Sim uArch: core:  1, cta: 0 initialized @(63744,0)
GPGPU-Sim PTX: 36200000 instructions simulated : ctaid=(94,0,0) tid=(31,0,0)
GPGPU-Sim PTX: 36300000 instructions simulated : ctaid=(101,0,0) tid=(95,0,0)
GPGPU-Sim uArch: cycles simulated: 64000  inst.: 36276672 (ipc=566.8) sim_rate=294932 (inst/sec) elapsed = 0:0:02:03 / Tue Apr 16 16:57:29 2019
GPGPU-Sim uArch: Shader 14 finished CTA #0 (64060,0), 7 CTAs running
GPGPU-Sim uArch: core: 14, cta: 0 initialized @(64061,0)
GPGPU-Sim PTX: 36400000 instructions simulated : ctaid=(82,0,0) tid=(127,0,0)
GPGPU-Sim uArch: Shader 4 finished CTA #0 (64199,0), 7 CTAs running
GPGPU-Sim uArch: core:  4, cta: 0 initialized @(64200,0)
GPGPU-Sim uArch: Shader 2 finished CTA #0 (64211,0), 7 CTAs running
GPGPU-Sim uArch: core:  2, cta: 0 initialized @(64212,0)
GPGPU-Sim PTX: 36500000 instructions simulated : ctaid=(96,0,0) tid=(63,0,0)
GPGPU-Sim uArch: cycles simulated: 64500  inst.: 36538624 (ipc=566.5) sim_rate=294666 (inst/sec) elapsed = 0:0:02:04 / Tue Apr 16 16:57:30 2019
GPGPU-Sim PTX: 36600000 instructions simulated : ctaid=(62,0,0) tid=(63,0,0)
GPGPU-Sim uArch: Shader 8 finished CTA #0 (64556,0), 7 CTAs running
GPGPU-Sim uArch: core:  8, cta: 0 initialized @(64557,0)
GPGPU-Sim PTX: 36700000 instructions simulated : ctaid=(67,0,0) tid=(31,0,0)
GPGPU-Sim uArch: Shader 13 finished CTA #0 (64736,0), 7 CTAs running
GPGPU-Sim uArch: core: 13, cta: 0 initialized @(64737,0)
GPGPU-Sim uArch: Shader 9 finished CTA #0 (64760,0), 7 CTAs running
GPGPU-Sim uArch: core:  9, cta: 0 initialized @(64761,0)
GPGPU-Sim uArch: Shader 11 finished CTA #1 (64844,0), 7 CTAs running
GPGPU-Sim uArch: core: 11, cta: 1 initialized @(64845,0)
GPGPU-Sim PTX: 36800000 instructions simulated : ctaid=(42,0,0) tid=(31,0,0)
GPGPU-Sim uArch: cycles simulated: 65000  inst.: 36806112 (ipc=566.2) sim_rate=294448 (inst/sec) elapsed = 0:0:02:05 / Tue Apr 16 16:57:31 2019
GPGPU-Sim PTX: 36900000 instructions simulated : ctaid=(54,0,0) tid=(63,0,0)
GPGPU-Sim PTX: 37000000 instructions simulated : ctaid=(30,0,0) tid=(31,0,0)
GPGPU-Sim PTX: 37100000 instructions simulated : ctaid=(73,0,0) tid=(63,0,0)
GPGPU-Sim uArch: Shader 10 finished CTA #0 (65469,0), 7 CTAs running
GPGPU-Sim uArch: core: 10, cta: 0 initialized @(65470,0)
GPGPU-Sim uArch: Shader 4 finished CTA #1 (65495,0), 7 CTAs running
GPGPU-Sim uArch: core:  4, cta: 1 initialized @(65496,0)
GPGPU-Sim uArch: cycles simulated: 65500  inst.: 37095456 (ipc=566.3) sim_rate=294408 (inst/sec) elapsed = 0:0:02:06 / Tue Apr 16 16:57:32 2019
GPGPU-Sim PTX: 37200000 instructions simulated : ctaid=(57,0,0) tid=(31,0,0)
GPGPU-Sim PTX: 37300000 instructions simulated : ctaid=(40,0,0) tid=(63,0,0)
GPGPU-Sim uArch: Shader 7 finished CTA #1 (65840,0), 7 CTAs running
GPGPU-Sim uArch: core:  7, cta: 1 initialized @(65841,0)
GPGPU-Sim uArch: Shader 6 finished CTA #1 (65963,0), 7 CTAs running
GPGPU-Sim uArch: core:  6, cta: 1 initialized @(65964,0)
GPGPU-Sim uArch: Shader 10 finished CTA #1 (65982,0), 7 CTAs running
GPGPU-Sim uArch: core: 10, cta: 1 initialized @(65983,0)
GPGPU-Sim PTX: 37400000 instructions simulated : ctaid=(111,0,0) tid=(31,0,0)
GPGPU-Sim PTX: 37500000 instructions simulated : ctaid=(63,0,0) tid=(127,0,0)
GPGPU-Sim PTX: 37600000 instructions simulated : ctaid=(34,0,0) tid=(127,0,0)
GPGPU-Sim uArch: Shader 12 finished CTA #0 (66477,0), 7 CTAs running
GPGPU-Sim uArch: core: 12, cta: 0 initialized @(66478,0)
GPGPU-Sim uArch: Shader 1 finished CTA #1 (66495,0), 7 CTAs running
GPGPU-Sim uArch: core:  1, cta: 1 initialized @(66496,0)
GPGPU-Sim uArch: cycles simulated: 66500  inst.: 37641152 (ipc=566.0) sim_rate=296387 (inst/sec) elapsed = 0:0:02:07 / Tue Apr 16 16:57:33 2019
GPGPU-Sim PTX: 37700000 instructions simulated : ctaid=(93,0,0) tid=(127,0,0)
GPGPU-Sim uArch: Shader 2 finished CTA #1 (66552,0), 7 CTAs running
GPGPU-Sim uArch: core:  2, cta: 1 initialized @(66553,0)
GPGPU-Sim PTX: 37800000 instructions simulated : ctaid=(58,0,0) tid=(63,0,0)
GPGPU-Sim uArch: Shader 12 finished CTA #1 (66761,0), 7 CTAs running
GPGPU-Sim uArch: core: 12, cta: 1 initialized @(66762,0)
GPGPU-Sim uArch: Shader 8 finished CTA #1 (66775,0), 7 CTAs running
GPGPU-Sim uArch: core:  8, cta: 1 initialized @(66776,0)
GPGPU-Sim PTX: 37900000 instructions simulated : ctaid=(132,0,0) tid=(127,0,0)
GPGPU-Sim uArch: Shader 3 finished CTA #1 (66909,0), 7 CTAs running
GPGPU-Sim uArch: core:  3, cta: 1 initialized @(66910,0)
GPGPU-Sim uArch: cycles simulated: 67000  inst.: 37934720 (ipc=566.2) sim_rate=296365 (inst/sec) elapsed = 0:0:02:08 / Tue Apr 16 16:57:34 2019
GPGPU-Sim PTX: 38000000 instructions simulated : ctaid=(133,0,0) tid=(95,0,0)
GPGPU-Sim PTX: 38100000 instructions simulated : ctaid=(63,0,0) tid=(127,0,0)
GPGPU-Sim PTX: 38200000 instructions simulated : ctaid=(101,0,0) tid=(31,0,0)
GPGPU-Sim uArch: cycles simulated: 67500  inst.: 38230976 (ipc=566.4) sim_rate=296364 (inst/sec) elapsed = 0:0:02:09 / Tue Apr 16 16:57:35 2019
GPGPU-Sim PTX: 38300000 instructions simulated : ctaid=(98,0,0) tid=(63,0,0)
GPGPU-Sim uArch: Shader 6 finished CTA #0 (67554,0), 7 CTAs running
GPGPU-Sim uArch: core:  6, cta: 0 initialized @(67555,0)
GPGPU-Sim uArch: Shader 14 finished CTA #1 (67634,0), 7 CTAs running
GPGPU-Sim uArch: core: 14, cta: 1 initialized @(67635,0)
GPGPU-Sim PTX: 38400000 instructions simulated : ctaid=(99,0,0) tid=(95,0,0)
GPGPU-Sim PTX: 38500000 instructions simulated : ctaid=(53,0,0) tid=(127,0,0)
GPGPU-Sim uArch: cycles simulated: 68000  inst.: 38502688 (ipc=566.2) sim_rate=296174 (inst/sec) elapsed = 0:0:02:10 / Tue Apr 16 16:57:36 2019
GPGPU-Sim PTX: 38600000 instructions simulated : ctaid=(83,0,0) tid=(95,0,0)
GPGPU-Sim uArch: Shader 7 finished CTA #2 (68132,0), 7 CTAs running
GPGPU-Sim uArch: core:  7, cta: 2 initialized @(68133,0)
GPGPU-Sim PTX: 38700000 instructions simulated : ctaid=(58,0,0) tid=(127,0,0)
GPGPU-Sim uArch: Shader 4 finished CTA #2 (68323,0), 7 CTAs running
GPGPU-Sim uArch: core:  4, cta: 2 initialized @(68324,0)
GPGPU-Sim PTX: 38800000 instructions simulated : ctaid=(118,0,0) tid=(63,0,0)
GPGPU-Sim uArch: cycles simulated: 68500  inst.: 38798592 (ipc=566.4) sim_rate=296172 (inst/sec) elapsed = 0:0:02:11 / Tue Apr 16 16:57:37 2019
GPGPU-Sim PTX: 38900000 instructions simulated : ctaid=(145,0,0) tid=(95,0,0)
GPGPU-Sim uArch: Shader 0 finished CTA #2 (68647,0), 7 CTAs running
GPGPU-Sim uArch: core:  0, cta: 2 initialized @(68648,0)
GPGPU-Sim uArch: Shader 0 finished CTA #1 (68649,0), 7 CTAs running
GPGPU-Sim uArch: core:  0, cta: 1 initialized @(68650,0)
GPGPU-Sim uArch: Shader 11 finished CTA #2 (68729,0), 7 CTAs running
GPGPU-Sim uArch: core: 11, cta: 2 initialized @(68730,0)
GPGPU-Sim PTX: 39000000 instructions simulated : ctaid=(149,0,0) tid=(127,0,0)
GPGPU-Sim uArch: Shader 5 finished CTA #1 (68832,0), 7 CTAs running
GPGPU-Sim uArch: core:  5, cta: 1 initialized @(68833,0)
GPGPU-Sim uArch: Shader 13 finished CTA #1 (68902,0), 7 CTAs running
GPGPU-Sim uArch: core: 13, cta: 1 initialized @(68903,0)
GPGPU-Sim PTX: 39100000 instructions simulated : ctaid=(50,0,0) tid=(31,0,0)
[...]
max_icnt2sh_latency = 346606 
mrq_lat_table:122674 	4004 	5957 	13798 	43993 	71460 	94328 	65626 	15147 	519 	3 	0 	0 	0 	0 	0 	0 	0 	0 	0 	0 	0 	0 	0 	0 	0 	0 	0 	0 	0 	0 	0 	
dq_lat_table:0 	0 	0 	0 	0 	0 	0 	0 	0 	0 	0 	0 	0 	0 	0 	0 	0 	0 	0 	0 	0 	0 	0 	0 	0 	0 	0 	0 	0 	0 	0 	0 	
mf_lat_table:0 	0 	0 	0 	0 	0 	0 	113 	128760 	181836 	1806 	0 	0 	0 	0 	0 	0 	0 	0 	0 	0 	0 	0 	0 	0 	0 	0 	0 	0 	0 	0 	0 	
icnt2mem_lat_table:0 	0 	0 	45794 	43307 	81850 	77800 	49304 	14508 	72 	0 	0 	0 	0 	0 	0 	0 	0 	0 	0 	0 	0 	0 	0 	
icnt2sh_lat_table:0 	0 	0 	122426 	61162 	3898 	29 	0 	0 	0 	0 	155 	1498 	3174 	6219 	12188 	24731 	49275 	27760 	0 	0 	0 	0 	0 	
mf_lat_pw_table:0 	0 	0 	0 	0 	0 	0 	0 	95 	596 	0 	0 	0 	0 	0 	0 	0 	0 	0 	0 	0 	0 	0 	0 	0 	0 	0 	0 	0 	0 	0 	0 	
maximum concurrent accesses to same row:
dram[0]:        28        28        22        14        20        22        34        34        22        22        26        32        32        30        22        22 
dram[1]:        23        27        24        14        26        20        32        32        24        14        26        30        32        30        26        16 
dram[2]:        28        26        14        20        20        32        36        32        16        14        30        28        32        30        20        16 
dram[3]:        26        26        14        16        20        24        36        32        14        14        28        24        32        30        14        10 
dram[4]:        29        34        24        22        20        24        34        34        14        26        28        34        30        30        18        22 
dram[5]:        26        31        18        20        22        24        32        32        10        22        26        30        30        30        12        22 
maximum service time to same row:
dram[0]:      3062      3217      4345      4101      3738      2310      2375      2621      5915      4454      3812      5208      3759      3220      5900      4670 
dram[1]:      3075      3086      4559      3836      5253      3847      3075      2660      5397      4186      3073      2983      3075      3109      5685      4372 
dram[2]:      2135      3371      4359      6432      3163      2369      2416      2415      4777      4469      2525      2587      3125      3064      4858      4703 
dram[3]:      2477      3213      3663      6924      2464      3180      2490      2415      4398      4243      4934      2517      3159      2809      4830      4554 
dram[4]:      2937      2989      4398      4175      2303      4576      2908      2387      5515      4409      3224      2653      3200      3288      4672      4588 
dram[5]:      3932      3122      5415      4451      2314      3807      3931      3115      5042      3961      3932      3122      3932      3107      4622      4495 
average row accesses per activate:
dram[0]:  1.573162  1.585724  1.543620  1.557473  1.566540  1.577994  1.595537  1.604488  1.537118  1.564444  1.581203  1.584488  1.575758  1.567660  1.567660  1.582843 
dram[1]:  1.540238  1.553119  1.525355  1.533651  1.552055  1.545176  1.555933  1.569811  1.542299  1.525842  1.555405  1.554348  1.554876  1.560709  1.549086  1.552765 
dram[2]:  1.571726  1.563298  1.548919  1.541510  1.577994  1.579937  1.595537  1.592206  1.556463  1.544381  1.581203  1.568735  1.585586  1.577931  1.579565  1.567660 
dram[3]:  1.547595  1.542546  1.520728  1.514602  1.543597  1.546012  1.576300  1.556463  1.521783  1.526860  1.568197  1.547514  1.555405  1.546991  1.552239  1.542819 
dram[4]:  1.562371  1.582955  1.545735  1.543092  1.567082  1.575547  1.578475  1.602802  1.544381  1.541779  1.585586  1.587786  1.570889  1.566051  1.563910  1.570889 
dram[5]:  1.558611  1.563837  1.538357  1.527938  1.561144  1.547067  1.561242  1.569811  1.530435  1.536602  1.562308  1.551712  1.545424  1.550661  1.537634  1.553293 
average row locality = 437509/280671 = 1.558797
number of total memory accesses made:
dram[0]:         0         0         0         0         0         0         0         0         0         0         0         0         0         0         0         0 
dram[1]:         0         0         0         0         0         0         0         0         0         0         0         0         0         0         0         0 
dram[2]:         0         0         0         0         0         0         0         0         0         0         0         0         0         0         0         0 
dram[3]:         0         0         0         0         0         0         0         0         0         0         0         0         0         0         0         0 
dram[4]:         0         0         0         0         0         0         0         0         0         0         0         0         0         0         0         0 
dram[5]:         0         0         0         0         0         0         0         0         0         0         0         0         0         0         0         0 
total accesses: 0
min_bank_accesses = 0!
min_chip_accesses = 0!
number of total read accesses:
dram[0]:      3251      3246      3232      3232      3242      3242      3264      3264      3264      3264      3264      3264      3264      3264      3264      3264 
dram[1]:      3250      3246      3232      3232      3242      3242      3264      3264      3264      3264      3264      3264      3264      3264      3264      3264 
dram[2]:      3250      3246      3232      3232      3242      3244      3264      3264      3264      3264      3264      3264      3264      3264      3264      3264 
dram[3]:      3250      3246      3232      3232      3242      3244      3264      3264      3264      3264      3264      3264      3264      3264      3264      3264 
dram[4]:      3248      3246      3232      3232      3242      3244      3264      3264      3264      3264      3264      3264      3264      3264      3264      3264 
dram[5]:      3248      3246      3232      3232      3242      3244      3264      3264      3264      3264      3264      3264      3264      3264      3264      3264 
total reads: 312509
bank skew: 3264/3232 = 1.01
chip skew: 52086/52084 = 1.00
number of total write accesses:
dram[0]:      1286      1286      1280      1280      1290      1290      1312      1312      1312      1312      1312      1312      1312      1312      1312      1312 
dram[1]:      1286      1286      1280      1280      1290      1290      1312      1312      1312      1312      1312      1312      1312      1312      1312      1312 
dram[2]:      1286      1286      1280      1280      1290      1292      1312      1312      1312      1312      1312      1312      1312      1312      1312      1312 
dram[3]:      1286      1286      1280      1280      1290      1292      1312      1312      1312      1312      1312      1312      1312      1312      1312      1312 
dram[4]:      1286      1286      1280      1280      1290      1292      1312      1312      1312      1312      1312      1312      1312      1312      1312      1312 
dram[5]:      1286      1286      1280      1280      1290      1292      1312      1312      1312      1312      1312      1312      1312      1312      1312      1312 
total reads: 125000
bank skew: 1312/1280 = 1.02
chip skew: 20834/20832 = 1.00
average mf latency per bank:
dram[0]:        399       404       407       417       412       418       416       426       402       410       408       407       410       417       421       427
dram[1]:        351       360       366       364       364       369       369       374       363       360       359       363       359       366       374       380
dram[2]:        438       435       444       443       447       449       450       453       437       441       444       442       447       450       463       465
dram[3]:        386       384       390       391       396       397       401       400       387       386       393       389       397       396       407       411
dram[4]:        385       402       385       404       394       413       398       421       385       399       392       408       388       406       405       426
dram[5]:        353       357       356       365       364       368       365       372       350       359       356       359       358       370       368       381
maximum mf latency per bank:
dram[0]:       1447      1265      1192      1328      1279      1242      1276      1242      1260      1319      1322      1514      1216      1230      1529      1425
dram[1]:       1142      1106      1048      1104      1218      1103      1134      1171      1055      1158      1216      1241      1127      1043      1130      1137
dram[2]:       1545      1241      1796      1213      1451      1549      1392      1406      1384      1290      1552      1257      1479      1331      1358      1306
dram[3]:       1063      1078      1163      1160      1439      1139      1197      1327      1217      1269      1314      1262      1182      1192      1181      1415
dram[4]:       1546      1680      1113      1511      1199      1226      1370      1376      1019      1419      1125      1428      1064      1240      1190      1326
dram[5]:       1064      1142      1076      1470      1299      1074      1172      1155      1098      1129      1824      1179      1001      1198      1114      1106

Number of Memory Banks Accessed per Memory Operation per Warp (from 0):
0	0	0	0	0	0	0	0	0	0	0	0	0	0	0	0	0	0	0	0	0	0	0	0	0	0	0	0	0	0	0	0	0	0	0	0	0	0	0	0	0	0	0	0	0	0	0	0	0	0	0	0	0	0	0	0	0	0	0	0	0	0	0	0	0	0	0	0	0	0	0	0	0	0	0	0	0	0	0	0	0	0	0	0	0	0	0	0	0	0	0	0	0	0	0	0	
Average # of Memory Banks Accessed per Memory Operation per Warp=-nan

position of mrq chosen
0	0	0	0	0	0	0	0	0	0	0	0	0	0	0	0	

average position of mrq chosen = -nan
Memory Partition 0: 
Cache L2_bank_000:
MSHR contents

Cache L2_bank_001:
MSHR contents

In Dram Latency Queue (total = 0): 
DRAM[0]: 16 bks, busW=4 BL=8 CL=12, tRRD=2 tCCD=6, tRCD=12 tRAS=28 tRP=12 tRC=40
n_cmd=457520 n_nop=218974 n_act=46364 n_pre=46348 n_req=72917 n_rd=104170 n_write=41664 bw_util=0.6375
n_activity=444471 dram_eff=0.6562
bk0: 6502a 219865i bk1: 6492a 212170i bk2: 6464a 209583i bk3: 6464a 200841i bk4: 6484a 194484i bk5: 6484a 191986i bk6: 6528a 180244i bk7: 6528a 173010i bk8: 6528a 216070i bk9: 6528a 208062i bk10: 6528a 205187i bk11: 6528a 202126i bk12: 6528a 192935i bk13: 6528a 184880i bk14: 6528a 176973i bk15: 6528a 167432i 
dram_util_bins: 0 0 0 0 0 0 0 0 0 0
dram_eff_bins: 0 0 0 0 0 0 0 0 0 0
mrqq: max=16 avg=14.4713
Memory Partition 1: 
Cache L2_bank_002:
MSHR contents

Cache L2_bank_003:
MSHR contents
MSHR: tag=0x80f20f80, atomic=0 1 entries : 0x7fceb90ecdf0 :  mf: uid=7611138, sid01:w03, part=1, addr=0x80f20f80, load , size=128, unknown  status = IN_PARTITION_DRAM (346604), 

In Dram Latency Queue (total = 0): 
DRAM[1]: 16 bks, busW=4 BL=8 CL=12, tRRD=2 tCCD=6, tRCD=12 tRAS=28 tRP=12 tRC=40
n_cmd=457520 n_nop=217504 n_act=47100 n_pre=47084 n_req=72916 n_rd=104168 n_write=41664 bw_util=0.6375
n_activity=446845 dram_eff=0.6527
bk0: 6500a 219859i bk1: 6492a 215020i bk2: 6464a 203547i bk3: 6464a 203156i bk4: 6484a 199089i bk5: 6484a 193997i bk6: 6528a 181231i bk7: 6528a 174487i bk8: 6528a 209723i bk9: 6528a 211183i bk10: 6528a 203717i bk11: 6528a 201669i bk12: 6528a 194827i bk13: 6528a 188565i bk14: 6528a 178666i bk15: 6528a 171298i 
dram_util_bins: 0 0 0 0 0 0 0 0 0 0
dram_eff_bins: 0 0 0 0 0 0 0 0 0 0
mrqq: max=16 avg=13.9491
Memory Partition 2: 
Cache L2_bank_004:
MSHR contents

Cache L2_bank_005:
MSHR contents

In Dram Latency Queue (total = 0): 
DRAM[2]: 16 bks, busW=4 BL=8 CL=12, tRRD=2 tCCD=6, tRCD=12 tRAS=28 tRP=12 tRC=40
n_cmd=457520 n_nop=218844 n_act=46426 n_pre=46410 n_req=72920 n_rd=104172 n_write=41668 bw_util=0.6375
n_activity=444073 dram_eff=0.6568
bk0: 6500a 218240i bk1: 6492a 210715i bk2: 6464a 206701i bk3: 6464a 197790i bk4: 6484a 196816i bk5: 6488a 190215i bk6: 6528a 180931i bk7: 6528a 166404i bk8: 6528a 213946i bk9: 6528a 202856i bk10: 6528a 202056i bk11: 6528a 199523i bk12: 6528a 192117i bk13: 6528a 183904i bk14: 6528a 173502i bk15: 6528a 164253i 
dram_util_bins: 0 0 0 0 0 0 0 0 0 0
dram_eff_bins: 0 0 0 0 0 0 0 0 0 0
mrqq: max=16 avg=14.6393
Memory Partition 3: 
Cache L2_bank_006:
MSHR contents

Cache L2_bank_007:
MSHR contents

In Dram Latency Queue (total = 0): 
DRAM[3]: 16 bks, busW=4 BL=8 CL=12, tRRD=2 tCCD=6, tRCD=12 tRAS=28 tRP=12 tRC=40
n_cmd=457520 n_nop=217254 n_act=47221 n_pre=47205 n_req=72920 n_rd=104172 n_write=41668 bw_util=0.6375
n_activity=446819 dram_eff=0.6528
bk0: 6500a 217988i bk1: 6492a 212287i bk2: 6464a 206582i bk3: 6464a 202418i bk4: 6484a 197410i bk5: 6488a 191878i bk6: 6528a 181886i bk7: 6528a 170529i bk8: 6528a 214043i bk9: 6528a 207495i bk10: 6528a 204883i bk11: 6528a 198935i bk12: 6528a 193729i bk13: 6528a 184489i bk14: 6528a 177100i bk15: 6528a 167143i 
dram_util_bins: 0 0 0 0 0 0 0 0 0 0
dram_eff_bins: 0 0 0 0 0 0 0 0 0 0
mrqq: max=16 avg=14.1308
Memory Partition 4: 
Cache L2_bank_008:
MSHR contents

Cache L2_bank_009:
MSHR contents

In Dram Latency Queue (total = 0): 
DRAM[4]: 16 bks, busW=4 BL=8 CL=12, tRRD=2 tCCD=6, tRCD=12 tRAS=28 tRP=12 tRC=40
n_cmd=457520 n_nop=218688 n_act=46506 n_pre=46490 n_req=72918 n_rd=104168 n_write=41668 bw_util=0.6375
n_activity=443843 dram_eff=0.6572
bk0: 6496a 217968i bk1: 6492a 212759i bk2: 6464a 206940i bk3: 6464a 202475i bk4: 6484a 195201i bk5: 6488a 187066i bk6: 6528a 182078i bk7: 6528a 170126i bk8: 6528a 213076i bk9: 6528a 204292i bk10: 6528a 204743i bk11: 6528a 200760i bk12: 6528a 192450i bk13: 6528a 186112i bk14: 6528a 177027i bk15: 6528a 165733i 
dram_util_bins: 0 0 0 0 0 0 0 0 0 0
dram_eff_bins: 0 0 0 0 0 0 0 0 0 0
mrqq: max=16 avg=14.4705
Memory Partition 5: 
Cache L2_bank_010:
MSHR contents

Cache L2_bank_011:
MSHR contents

In Dram Latency Queue (total = 0): 
DRAM[5]: 16 bks, busW=4 BL=8 CL=12, tRRD=2 tCCD=6, tRCD=12 tRAS=28 tRP=12 tRC=40
n_cmd=457520 n_nop=217592 n_act=47054 n_pre=47038 n_req=72918 n_rd=104168 n_write=41668 bw_util=0.6375
n_activity=446993 dram_eff=0.6525
bk0: 6496a 222936i bk1: 6492a 213484i bk2: 6464a 208167i bk3: 6464a 198370i bk4: 6484a 196944i bk5: 6488a 187975i bk6: 6528a 183661i bk7: 6528a 171390i bk8: 6528a 216936i bk9: 6528a 209653i bk10: 6528a 208337i bk11: 6528a 197889i bk12: 6528a 197313i bk13: 6528a 184855i bk14: 6528a 180586i bk15: 6528a 170011i 
dram_util_bins: 0 0 0 0 0 0 0 0 0 0
dram_eff_bins: 0 0 0 0 0 0 0 0 0 0
mrqq: max=16 avg=14.0894

========= L2 cache stats =========
L2_cache_bank[0]: Access = 26087, Miss = 26045, Miss_rate = 0.998, Pending_hits = 9, Reservation_fails = 20157
L2_cache_bank[1]: Access = 26040, Miss = 26040, Miss_rate = 1.000, Pending_hits = 0, Reservation_fails = 24921
L2_cache_bank[2]: Access = 26072, Miss = 26044, Miss_rate = 0.999, Pending_hits = 6, Reservation_fails = 12161
L2_cache_bank[3]: Access = 26040, Miss = 26040, Miss_rate = 1.000, Pending_hits = 0, Reservation_fails = 15731
L2_cache_bank[4]: Access = 26072, Miss = 26044, Miss_rate = 0.999, Pending_hits = 6, Reservation_fails = 26423
L2_cache_bank[5]: Access = 26042, Miss = 26042, Miss_rate = 1.000, Pending_hits = 0, Reservation_fails = 30999
L2_cache_bank[6]: Access = 26072, Miss = 26044, Miss_rate = 0.999, Pending_hits = 6, Reservation_fails = 18369
L2_cache_bank[7]: Access = 26042, Miss = 26042, Miss_rate = 1.000, Pending_hits = 0, Reservation_fails = 21698
L2_cache_bank[8]: Access = 26042, Miss = 26042, Miss_rate = 1.000, Pending_hits = 0, Reservation_fails = 12226
L2_cache_bank[9]: Access = 26042, Miss = 26042, Miss_rate = 1.000, Pending_hits = 0, Reservation_fails = 22075
L2_cache_bank[10]: Access = 26042, Miss = 26042, Miss_rate = 1.000, Pending_hits = 0, Reservation_fails = 9359
L2_cache_bank[11]: Access = 26042, Miss = 26042, Miss_rate = 1.000, Pending_hits = 0, Reservation_fails = 13863
L2_total_cache_accesses = 312635
L2_total_cache_misses = 312509
L2_total_cache_miss_rate = 0.9996
L2_total_cache_pending_hits = 27
L2_total_cache_reservation_fails = 227982
L2_total_cache_breakdown:
	L2_cache_stats_breakdown[GLOBAL_ACC_R][MISS] = 187500
	L2_cache_stats_breakdown[GLOBAL_ACC_R][RESERVATION_FAIL] = 137264
	L2_cache_stats_breakdown[CONST_ACC_R][HIT] = 11
	L2_cache_stats_breakdown[CONST_ACC_R][HIT_RESERVED] = 3
	L2_cache_stats_breakdown[CONST_ACC_R][MISS] = 1
	L2_cache_stats_breakdown[CONST_ACC_R][RESERVATION_FAIL] = 109
	L2_cache_stats_breakdown[GLOBAL_ACC_W][MISS] = 125000
	L2_cache_stats_breakdown[GLOBAL_ACC_W][RESERVATION_FAIL] = 89897
	L2_cache_stats_breakdown[INST_ACC_R][HIT] = 88
	L2_cache_stats_breakdown[INST_ACC_R][HIT_RESERVED] = 24
	L2_cache_stats_breakdown[INST_ACC_R][MISS] = 8
	L2_cache_stats_breakdown[INST_ACC_R][RESERVATION_FAIL] = 712
L2_cache_data_port_util = 0.000
L2_cache_fill_port_util = 0.301

icnt_total_pkts_mem_to_simt=1063145
icnt_total_pkts_simt_to_mem=812635
LD_mem_lat_dist  0 0 0 0 0 0 0 0 0 0 0 0 0 0 0 0 0 0 0 0 0 0 0 0 0 0 0
ST_mem_lat_dist  0 0 0 0 0 0 0 0 0 0 0 0 0 0 0 0 0 0 0 0 0 0 0 0 0 0 0
----------------------------Interconnect-DETAILS--------------------------------
Class 0:
Packet latency average = 28.0422
	minimum = 6
	maximum = 678
Network latency average = 20.534
	minimum = 6
	maximum = 438
Slowest packet = 3680
Flit latency average = 15.5185
	minimum = 6
	maximum = 434
Slowest flit = 1080272
Fragmentation average = 0.252684
	minimum = 0
	maximum = 359
Injected packet rate average = 0.0668139
	minimum = 0.0582475 (at node 9)
	maximum = 0.0752639 (at node 15)
Accepted packet rate average = 0.0668139
	minimum = 0.0582475 (at node 9)
	maximum = 0.0752639 (at node 15)
Injected flit rate average = 0.200438
	minimum = 0.151402 (at node 9)
	maximum = 0.256028 (at node 15)
Accepted flit rate average= 0.200438
	minimum = 0.195334 (at node 16)
	maximum = 0.21083 (at node 1)
Injected packet length average = 2.99995
Accepted packet length average = 2.99995
Total in-flight flits = 0 (0 measured)
====== Overall Traffic Statistics ======
====== Traffic class 0 ======
Packet latency average = 28.0422 (1 samples)
	minimum = 6 (1 samples)
	maximum = 678 (1 samples)
Network latency average = 20.534 (1 samples)
	minimum = 6 (1 samples)
	maximum = 438 (1 samples)
Flit latency average = 15.5185 (1 samples)
	minimum = 6 (1 samples)
	maximum = 434 (1 samples)
Fragmentation average = 0.252684 (1 samples)
	minimum = 0 (1 samples)
	maximum = 359 (1 samples)
Injected packet rate average = 0.0668139 (1 samples)
	minimum = 0.0582475 (1 samples)
	maximum = 0.0752639 (1 samples)
Accepted packet rate average = 0.0668139 (1 samples)
	minimum = 0.0582475 (1 samples)
	maximum = 0.0752639 (1 samples)
Injected flit rate average = 0.200438 (1 samples)
	minimum = 0.151402 (1 samples)
	maximum = 0.256028 (1 samples)
Accepted flit rate average = 0.200438 (1 samples)
	minimum = 0.195334 (1 samples)
	maximum = 0.21083 (1 samples)
Injected packet size average = 2.99995 (1 samples)
Accepted packet size average = 2.99995 (1 samples)
Hops average = 1 (1 samples)
----------------------------END-of-Interconnect-DETAILS-------------------------


gpgpu_simulation_time = 0 days, 0 hrs, 10 min, 46 sec (646 sec)
gpgpu_simulation_rate = 303067 (inst/sec)
gpgpu_simulation_rate = 536 (cycle/sec)
GPGPU-Sim: synchronize waiting for inactive GPU simulation
GPGPU-Sim API: Stream Manager State
GPGPU-Sim: detected inactive GPU simulation thread
Options count             : 4000000     
BlackScholesGPU() time    : 643427.062500 msec
Effective memory bandwidth: 0.000062 GB/s
Gigaoptions per second    : 0.000006     
Reading back GPU results...
Checking the results...
...running CPU calculations.
Comparing the results...
L1 norm: 1.729535E-07
Max absolute error: 1.192093E-05
TEST PASSED
Shutting down...
...releasing GPU memory.
...releasing CPU memory.
Shutdown done.
GPGPU-Sim: exit_simulation called
GPGPU-Sim: simulation thread signaled exit

Press ENTER to exit...
