

        *** GPGPU-Sim Simulator Version 3.2.2  [build 0] ***


GPGPU-Sim PTX: simulation mode 0 (can change with PTX_SIM_MODE_FUNC environment variable:
               1=functional simulation only, 0=detailed performance simulator)
GPGPU-Sim: Configuration options:

-network_mode                           1 # Interconnection network mode
-inter_config_file   config_fermi_islip.icnt # Interconnection network config file
-gpgpu_ptx_use_cuobjdump                    1 # Use cuobjdump to extract ptx and sass from binaries
-gpgpu_experimental_lib_support                    0 # Try to extract code from cuda libraries [Broken because of unknown cudaGetExportTable]
-gpgpu_ptx_convert_to_ptxplus                    0 # Convert SASS (native ISA) to ptxplus and run ptxplus
-gpgpu_ptx_force_max_capability                   20 # Force maximum compute capability
-gpgpu_ptx_inst_debug_to_file                    0 # Dump executed instructions' debug information to file
-gpgpu_ptx_inst_debug_file       inst_debug.txt # Executed instructions' debug output file
-gpgpu_ptx_inst_debug_thread_uid                    1 # Thread UID for executed instructions' debug output
-gpgpu_simd_model                       1 # 1 = post-dominator
-gpgpu_shader_core_pipeline              1536:32 # shader core pipeline config, i.e., {<nthread>:<warpsize>}
-gpgpu_tex_cache:l1  4:128:24,L:R:m:N:L,F:128:4,128:2 # per-shader L1 texture cache  (READ-ONLY) config  {<nsets>:<bsize>:<assoc>,<rep>:<wr>:<alloc>:<wr_alloc>,<mshr>:<N>:<merge>,<mq>:<rf>}
-gpgpu_const_cache:l1 64:64:2,L:R:f:N:L,A:2:32,4 # per-shader L1 constant memory cache  (READ-ONLY) config  {<nsets>:<bsize>:<assoc>,<rep>:<wr>:<alloc>:<wr_alloc>,<mshr>:<N>:<merge>,<mq>} 
-gpgpu_cache:il1     4:128:4,L:R:f:N:L,A:2:32,4 # shader L1 instruction cache config  {<nsets>:<bsize>:<assoc>,<rep>:<wr>:<alloc>:<wr_alloc>,<mshr>:<N>:<merge>,<mq>} 
-gpgpu_cache:dl1     64:128:16,L:L:m:N:H,A:32:8,8 # per-shader L1 data cache config  {<nsets>:<bsize>:<assoc>,<rep>:<wr>:<alloc>:<wr_alloc>,<mshr>:<N>:<merge>,<mq> | none}
-gpgpu_cache:dl1PrefL1                 none # per-shader L1 data cache config  {<nsets>:<bsize>:<assoc>,<rep>:<wr>:<alloc>:<wr_alloc>,<mshr>:<N>:<merge>,<mq> | none}
-gpgpu_cache:dl1PreShared                 none # per-shader L1 data cache config  {<nsets>:<bsize>:<assoc>,<rep>:<wr>:<alloc>:<wr_alloc>,<mshr>:<N>:<merge>,<mq> | none}
-gmem_skip_L1D                          0 # global memory access skip L1D cache (implements -Xptxas -dlcm=cg, default=no skip)
-gpgpu_perfect_mem                      0 # enable perfect memory mode (no cache miss)
-n_regfile_gating_group                    4 # group of lanes that should be read/written together)
-gpgpu_clock_gated_reg_file                    0 # enable clock gated reg file for power calculations
-gpgpu_clock_gated_lanes                    0 # enable clock gated lanes for power calculations
-gpgpu_shader_registers                32768 # Number of registers per shader core. Limits number of concurrent CTAs. (default 8192)
-gpgpu_shader_cta                       8 # Maximum number of concurrent CTAs in shader (default 8)
-gpgpu_num_cta_barriers                   16 # Maximum number of named barriers per CTA (default 16)
-gpgpu_n_clusters                      15 # number of processing clusters
-gpgpu_n_cores_per_cluster                    1 # number of simd cores per cluster
-gpgpu_n_cluster_ejection_buffer_size                    8 # number of packets in ejection buffer
-gpgpu_n_ldst_response_buffer_size                    2 # number of response packets in ld/st unit ejection buffer
-gpgpu_shmem_size                   16384 # Size of shared memory per shader core (default 16kB)
-gpgpu_shmem_size                   49152 # Size of shared memory per shader core (default 16kB)
-gpgpu_shmem_size_PrefL1                16384 # Size of shared memory per shader core (default 16kB)
-gpgpu_shmem_size_PrefShared                16384 # Size of shared memory per shader core (default 16kB)
-gpgpu_shmem_num_banks                   32 # Number of banks in the shared memory in each shader core (default 16)
-gpgpu_shmem_limited_broadcast                    0 # Limit shared memory to do one broadcast per cycle (default on)
-gpgpu_shmem_warp_parts                    1 # Number of portions a warp is divided into for shared memory bank conflict check 
-gpgpu_warpdistro_shader                   -1 # Specify which shader core to collect the warp size distribution from
-gpgpu_warp_issue_shader                    0 # Specify which shader core to collect the warp issue distribution from
-gpgpu_local_mem_map                    1 # Mapping from local memory space address to simulated GPU physical address space (default = enabled)
-gpgpu_num_reg_banks                   16 # Number of register banks (default = 8)
-gpgpu_reg_bank_use_warp_id                    0 # Use warp ID in mapping registers to banks (default = off)
-gpgpu_operand_collector_num_units_sp                    6 # number of collector units (default = 4)
-gpgpu_operand_collector_num_units_sfu                    8 # number of collector units (default = 4)
-gpgpu_operand_collector_num_units_mem                    2 # number of collector units (default = 2)
-gpgpu_operand_collector_num_units_gen                    0 # number of collector units (default = 0)
-gpgpu_operand_collector_num_in_ports_sp                    2 # number of collector unit in ports (default = 1)
-gpgpu_operand_collector_num_in_ports_sfu                    1 # number of collector unit in ports (default = 1)
-gpgpu_operand_collector_num_in_ports_mem                    1 # number of collector unit in ports (default = 1)
-gpgpu_operand_collector_num_in_ports_gen                    0 # number of collector unit in ports (default = 0)
-gpgpu_operand_collector_num_out_ports_sp                    2 # number of collector unit in ports (default = 1)
-gpgpu_operand_collector_num_out_ports_sfu                    1 # number of collector unit in ports (default = 1)
-gpgpu_operand_collector_num_out_ports_mem                    1 # number of collector unit in ports (default = 1)
-gpgpu_operand_collector_num_out_ports_gen                    0 # number of collector unit in ports (default = 0)
-gpgpu_coalesce_arch                   13 # Coalescing arch (default = 13, anything else is off for now)
-gpgpu_num_sched_per_core                    2 # Number of warp schedulers per core
-gpgpu_max_insn_issue_per_warp                    1 # Max number of instructions that can be issued per warp in one cycle by scheduler
-gpgpu_simt_core_sim_order                    1 # Select the simulation order of cores in a cluster (0=Fix, 1=Round-Robin)
-gpgpu_pipeline_widths        2,1,1,2,1,1,2 # Pipeline widths ID_OC_SP,ID_OC_SFU,ID_OC_MEM,OC_EX_SP,OC_EX_SFU,OC_EX_MEM,EX_WB
-gpgpu_num_sp_units                     2 # Number of SP units (default=1)
-gpgpu_num_sfu_units                    1 # Number of SF units (default=1)
-gpgpu_num_mem_units                    1 # Number if ldst units (default=1) WARNING: not hooked up to anything
-gpgpu_scheduler                      gto # Scheduler configuration: < lrr | gto | two_level_active > If two_level_active:<num_active_warps>:<inner_prioritization>:<outer_prioritization>For complete list of prioritization values see shader.h enum scheduler_prioritization_typeDefault: gto
-gpgpu_dram_scheduler                    1 # 0 = fifo, 1 = FR-FCFS (defaul)
-gpgpu_dram_partition_queues              8:8:8:8 # i2$:$2d:d2$:$2i
-l2_ideal                               0 # Use a ideal L2 cache that always hit
-gpgpu_cache:dl2     64:128:8,L:B:m:W:L,A:32:4,4:0,32 # unified banked L2 data cache config  {<nsets>:<bsize>:<assoc>,<rep>:<wr>:<alloc>:<wr_alloc>,<mshr>:<N>:<merge>,<mq>}
-gpgpu_cache:dl2_texture_only                    0 # L2 cache used for texture only
-gpgpu_n_mem                            6 # number of memory modules (e.g. memory controllers) in gpu
-gpgpu_n_sub_partition_per_mchannel                    2 # number of memory subpartition in each memory module
-gpgpu_n_mem_per_ctrlr                    2 # number of memory chips per memory controller
-gpgpu_memlatency_stat                   14 # track and display latency statistics 0x2 enables MC, 0x4 enables queue logs
-gpgpu_frfcfs_dram_sched_queue_size                   16 # 0 = unlimited (default); # entries per chip
-gpgpu_dram_return_queue_size                  116 # 0 = unlimited (default); # entries per chip
-gpgpu_dram_buswidth                    4 # default = 4 bytes (8 bytes per cycle at DDR)
-gpgpu_dram_burst_length                    8 # Burst length of each DRAM request (default = 4 data bus cycle)
-dram_data_command_freq_ratio                    4 # Frequency ratio between DRAM data bus and command bus (default = 2 times, i.e. DDR)
-gpgpu_dram_timing_opt nbk=16:CCD=2:RRD=6:RCD=12:RAS=28:RP=12:RC=40: CL=12:WL=4:CDLR=5:WR=12:nbkgrp=4:CCDL=3:RTPL=2 # DRAM timing parameters = {nbk:tCCD:tRRD:tRCD:tRAS:tRP:tRC:CL:WL:tCDLR:tWR:nbkgrp:tCCDL:tRTPL}
-rop_latency                          120 # ROP queue latency (default 85)
-dram_latency                         100 # DRAM latency (default 30)
-gpgpu_mem_addr_mapping dramid@8;00000000.00000000.00000000.00000000.0000RRRR.RRRRRRRR.BBBCCCCB.CCSSSSSS # mapping memory address to dram model {dramid@<start bit>;<memory address map>}
-gpgpu_mem_addr_test                    0 # run sweep test to check address mapping for aliased address
-gpgpu_mem_address_mask                    1 # 0 = old addressing mask, 1 = new addressing mask, 2 = new add. mask + flipped bank sel and chip sel bits
-gpuwattch_xml_file  gpuwattch_gtx480.xml # GPUWattch XML file
-power_simulation_enabled                    1 # Turn on power simulator (1=On, 0=Off)
-power_per_cycle_dump                    0 # Dump detailed power output each cycle
-power_trace_enabled                    0 # produce a file for the power trace (1=On, 0=Off)
-power_trace_zlevel                     6 # Compression level of the power trace output log (0=no comp, 9=highest)
-steady_power_levels_enabled                    0 # produce a file for the steady power levels (1=On, 0=Off)
-steady_state_definition                  8:4 # allowed deviation:number of samples
-gpgpu_max_cycle                        0 # terminates gpu simulation early (0 = no limit)
-gpgpu_max_insn                         0 # terminates gpu simulation early (0 = no limit)
-gpgpu_max_cta                          0 # terminates gpu simulation early (0 = no limit)
-gpgpu_runtime_stat                   500 # display runtime statistics such as dram utilization {<freq>:<flag>}
-liveness_message_freq                    1 # Minimum number of seconds between simulation liveness messages (0 = always print)
-gpgpu_flush_l1_cache                    0 # Flush L1 cache at the end of each kernel call
-gpgpu_flush_l2_cache                    0 # Flush L2 cache at the end of each kernel call
-gpgpu_deadlock_detect                    1 # Stop the simulation at deadlock (1=on (default), 0=off)
-gpgpu_ptx_instruction_classification                    0 # if enabled will classify ptx instruction types per kernel (Max 255 kernels now)
-gpgpu_ptx_sim_mode                     0 # Select between Performance (default) or Functional simulation (1)
-gpgpu_clock_domains 700.0:700.0:700.0:924.0 # Clock Domain Frequencies in MhZ {<Core Clock>:<ICNT Clock>:<L2 Clock>:<DRAM Clock>}
-gpgpu_max_concurrent_kernel                    8 # maximum kernels that can run concurrently on GPU
-gpgpu_cflog_interval                    0 # Interval between each snapshot in control flow logger
-visualizer_enabled                     0 # Turn on visualizer output (1=On, 0=Off)
-visualizer_outputfile                 NULL # Specifies the output log file for visualizer
-visualizer_zlevel                      6 # Compression level of the visualizer output log (0=no comp, 9=highest)
-trace_enabled                          0 # Turn on traces
-trace_components                    none # comma seperated list of traces to enable. Complete list found in trace_streams.tup. Default none
-trace_sampling_core                    0 # The core which is printed using CORE_DPRINTF. Default 0
-trace_sampling_memory_partition                   -1 # The memory partition which is printed using MEMPART_DPRINTF. Default -1 (i.e. all)
-enable_ptx_file_line_stats                    1 # Turn on PTX source line statistic profiling. (1 = On)
-ptx_line_stats_filename gpgpu_inst_stats.txt # Output file for PTX source line statistics.
-save_embedded_ptx                      0 # saves ptx files embedded in binary as <n>.ptx
-keep                                   0 # keep intermediate files created by GPGPU-Sim when interfacing with external programs
-gpgpu_ptx_save_converted_ptxplus                    0 # Saved converted ptxplus to a file
-ptx_opcode_latency_int         4,13,4,5,145 # Opcode latencies for integers <ADD,MAX,MUL,MAD,DIV>Default 1,1,19,25,145
-ptx_opcode_latency_fp          4,13,4,5,39 # Opcode latencies for single precision floating points <ADD,MAX,MUL,MAD,DIV>Default 1,1,1,1,30
-ptx_opcode_latency_dp         8,19,8,8,330 # Opcode latencies for double precision floating points <ADD,MAX,MUL,MAD,DIV>Default 8,8,8,8,335
-ptx_opcode_initiation_int            1,2,2,1,8 # Opcode initiation intervals for integers <ADD,MAX,MUL,MAD,DIV>Default 1,1,4,4,32
-ptx_opcode_initiation_fp            1,2,1,1,4 # Opcode initiation intervals for single precision floating points <ADD,MAX,MUL,MAD,DIV>Default 1,1,1,1,5
-ptx_opcode_initiation_dp         8,16,8,8,130 # Opcode initiation intervals for double precision floating points <ADD,MAX,MUL,MAD,DIV>Default 8,8,8,8,130
DRAM Timing Options:
nbk                                    16 # number of banks
CCD                                     2 # column to column delay
RRD                                     6 # minimal delay between activation of rows in different banks
RCD                                    12 # row to column delay
RAS                                    28 # time needed to activate row
RP                                     12 # time needed to precharge (deactivate) row
RC                                     40 # row cycle time
CDLR                                    5 # switching from write to read (changes tWTR)
WR                                     12 # last data-in to row precharge
CL                                     12 # CAS latency
WL                                      4 # Write latency
nbkgrp                                  4 # number of bank groups
CCDL                                    3 # column to column delay between accesses to different bank groups
RTPL                                    2 # read to precharge delay between accesses to different bank groups
Total number of memory sub partition = 12
addr_dec_mask[CHIP]  = 0000000000000000 	high:64 low:0
addr_dec_mask[BK]    = 000000000000e100 	high:16 low:8
addr_dec_mask[ROW]   = 000000000fff0000 	high:28 low:16
addr_dec_mask[COL]   = 0000000000001eff 	high:13 low:0
addr_dec_mask[BURST] = 000000000000003f 	high:6 low:0
sub_partition_id_mask = 0000000000000100
GPGPU-Sim uArch: clock freqs: 700000000.000000:700000000.000000:700000000.000000:924000000.000000
GPGPU-Sim uArch: clock periods: 0.00000000142857142857:0.00000000142857142857:0.00000000142857142857:0.00000000108225108225
*** Initializing Memory Statistics ***
GPGPU-Sim uArch: interconnect node map (shaderID+MemID to icntID)
GPGPU-Sim uArch: Memory nodes ID start from index: 15
GPGPU-Sim uArch:    0   1   2   3   4
GPGPU-Sim uArch:    5   6   7   8   9
GPGPU-Sim uArch:   10  11  12  13  14
GPGPU-Sim uArch:   15  16  17  18  19
GPGPU-Sim uArch:   20  21  22  23  24
GPGPU-Sim uArch:   25  26
GPGPU-Sim uArch: interconnect node reverse map (icntID to shaderID+MemID)
GPGPU-Sim uArch: Memory nodes start from ID: 15
GPGPU-Sim uArch:    0   1   2   3   4
GPGPU-Sim uArch:    5   6   7   8   9
GPGPU-Sim uArch:   10  11  12  13  14
GPGPU-Sim uArch:   15  16  17  18  19
GPGPU-Sim uArch:   20  21  22  23  24
GPGPU-Sim uArch:   25  26
db8fd71b22e5f9e87a0df9a155b78fdf  /home/scratch/adwait/applications/benchmarks/CUDA/KMN/gpgpu_ptx_sim__KMN
GPGPU-Sim uArch: performance model initialization complete.
GPGPU-Sim PTX: __cudaRegisterFatBinary, fat_cubin_handle = 1, filename=kmeans_cuda.cu
self exe links to: /home/scratch/adwait/applications/benchmarks/CUDA/KMN/gpgpu_ptx_sim__KMN
Running md5sum using "md5sum /home/scratch/adwait/applications/benchmarks/CUDA/KMN/gpgpu_ptx_sim__KMN "
Running cuobjdump using "$CUDA_INSTALL_PATH/bin/cuobjdump -ptx -elf -sass /home/scratch/adwait/applications/benchmarks/CUDA/KMN/gpgpu_ptx_sim__KMN > _cuobjdump_complete_output_2yBUPR"
Parsing file _cuobjdump_complete_output_2yBUPR
######### cuobjdump parser ########
## Adding new section ELF
Adding arch: sm_20
Adding identifier: kmeans_cuda.cu
## Adding new section PTX
Adding ptx filename: _cuobjdump_1.ptx
Adding arch: sm_20
Adding identifier: kmeans_cuda.cu
Done parsing!!!
GPGPU-Sim PTX: __cudaRegisterFunction _Z11kmeansPointPfiiiPiS_S_S0_ : hostFun 0x0x402c28, fat_cubin_handle = 1
GPGPU-Sim PTX: instruction assembly for function '_Z14invert_mappingPfS_ii'...   done.
GPGPU-Sim PTX: finding reconvergence points for '_Z14invert_mappingPfS_ii'...
GPGPU-Sim PTX: Finding dominators for '_Z14invert_mappingPfS_ii'...
GPGPU-Sim PTX: Finding immediate dominators for '_Z14invert_mappingPfS_ii'...
GPGPU-Sim PTX: Finding postdominators for '_Z14invert_mappingPfS_ii'...
GPGPU-Sim PTX: Finding immediate postdominators for '_Z14invert_mappingPfS_ii'...
GPGPU-Sim PTX: pre-decoding instructions for '_Z14invert_mappingPfS_ii'...
GPGPU-Sim PTX: reconvergence points for _Z14invert_mappingPfS_ii...
GPGPU-Sim PTX:  1 (potential) branch divergence @  PC=0x038 (_1.ptx:70) @%p1 bra $Lt_0_2050;
GPGPU-Sim PTX:    immediate post dominator      @  PC=0x110 (_1.ptx:103) exit;
GPGPU-Sim PTX:  2 (potential) branch divergence @  PC=0x058 (_1.ptx:74) @%p2 bra $Lt_0_2562;
GPGPU-Sim PTX:    immediate post dominator      @  PC=0x110 (_1.ptx:103) exit;
GPGPU-Sim PTX:  3 (potential) branch divergence @  PC=0x108 (_1.ptx:99) @%p3 bra $Lt_0_3074;
GPGPU-Sim PTX:    immediate post dominator      @  PC=0x110 (_1.ptx:103) exit;
GPGPU-Sim PTX: ... end of reconvergence points for _Z14invert_mappingPfS_ii
GPGPU-Sim PTX: ... done pre-decoding instructions for '_Z14invert_mappingPfS_ii'.
GPGPU-Sim PTX: instruction assembly for function '_Z11kmeansPointPfiiiPiS_S_S0_'...   done.
GPGPU-Sim PTX: finding reconvergence points for '_Z11kmeansPointPfiiiPiS_S_S0_'...
GPGPU-Sim PTX: Finding dominators for '_Z11kmeansPointPfiiiPiS_S_S0_'...
GPGPU-Sim PTX: Finding immediate dominators for '_Z11kmeansPointPfiiiPiS_S_S0_'...
GPGPU-Sim PTX: Finding postdominators for '_Z11kmeansPointPfiiiPiS_S_S0_'...
GPGPU-Sim PTX: Finding immediate postdominators for '_Z11kmeansPointPfiiiPiS_S_S0_'...
GPGPU-Sim PTX: pre-decoding instructions for '_Z11kmeansPointPfiiiPiS_S_S0_'...
GPGPU-Sim PTX: reconvergence points for _Z11kmeansPointPfiiiPiS_S_S0_...
GPGPU-Sim PTX:  1 (potential) branch divergence @  PC=0x180 (_1.ptx:136) @!%p1 bra $Lt_1_4866;
GPGPU-Sim PTX:    immediate post dominator      @  PC=0x320 (_1.ptx:202) @!%p1 bra $Lt_1_7682;
GPGPU-Sim PTX:  2 (potential) branch divergence @  PC=0x1a0 (_1.ptx:140) @%p2 bra $Lt_1_8194;
GPGPU-Sim PTX:    immediate post dominator      @  PC=0x320 (_1.ptx:202) @!%p1 bra $Lt_1_7682;
GPGPU-Sim PTX:  3 (potential) branch divergence @  PC=0x1e8 (_1.ptx:151) @!%p3 bra $Lt_1_8450;
GPGPU-Sim PTX:    immediate post dominator      @  PC=0x2c8 (_1.ptx:185) setp.lt.f32 %p5, %f2, %f1;
GPGPU-Sim PTX:  4 (potential) branch divergence @  PC=0x2b0 (_1.ptx:180) @%p4 bra $Lt_1_6402;
GPGPU-Sim PTX:    immediate post dominator      @  PC=0x2b8 (_1.ptx:181) bra.uni $Lt_1_5890;
GPGPU-Sim PTX:  5 (potential) branch divergence @  PC=0x2b8 (_1.ptx:181) bra.uni $Lt_1_5890;
GPGPU-Sim PTX:    immediate post dominator      @  PC=0x2c8 (_1.ptx:185) setp.lt.f32 %p5, %f2, %f1;
GPGPU-Sim PTX:  6 (potential) branch divergence @  PC=0x2d0 (_1.ptx:186) @!%p5 bra $Lt_1_6914;
GPGPU-Sim PTX:    immediate post dominator      @  PC=0x2e8 (_1.ptx:192) add.s32 %r18, %r18, 1;
GPGPU-Sim PTX:  7 (potential) branch divergence @  PC=0x2f8 (_1.ptx:194) @%p6 bra $Lt_1_5634;
GPGPU-Sim PTX:    immediate post dominator      @  PC=0x300 (_1.ptx:195) bra.uni $Lt_1_4610;
GPGPU-Sim PTX:  8 (potential) branch divergence @  PC=0x300 (_1.ptx:195) bra.uni $Lt_1_4610;
GPGPU-Sim PTX:    immediate post dominator      @  PC=0x320 (_1.ptx:202) @!%p1 bra $Lt_1_7682;
GPGPU-Sim PTX:  9 (potential) branch divergence @  PC=0x310 (_1.ptx:198) bra.uni $Lt_1_4610;
GPGPU-Sim PTX:    immediate post dominator      @  PC=0x320 (_1.ptx:202) @!%p1 bra $Lt_1_7682;
GPGPU-Sim PTX: 10 (potential) branch divergence @  PC=0x320 (_1.ptx:202) @!%p1 bra $Lt_1_7682;
GPGPU-Sim PTX:    immediate post dominator      @  PC=0x350 (_1.ptx:211) exit;
GPGPU-Sim PTX: ... end of reconvergence points for _Z11kmeansPointPfiiiPiS_S_S0_
GPGPU-Sim PTX: ... done pre-decoding instructions for '_Z11kmeansPointPfiiiPiS_S_S0_'.
GPGPU-Sim PTX: allocating global region for "t_features" from 0x100 to 0x104 (global memory space)
GPGPU-Sim PTX: allocating global region for "t_features_flipped" from 0x104 to 0x108 (global memory space)
GPGPU-Sim PTX: allocating global region for "t_clusters" from 0x108 to 0x10c (global memory space)
GPGPU-Sim PTX: finished parsing EMBEDDED .ptx file _1.ptx
Adding _cuobjdump_1.ptx with cubin handle 1
GPGPU-Sim PTX: extracting embedded .ptx to temporary file "_ptx_1EPIjy"
Running: cat _ptx_1EPIjy | sed 's/.version 1.5/.version 1.4/' | sed 's/, texmode_independent//' | sed 's/\(\.extern \.const\[1\] .b8 \w\+\)\[\]/\1\[1\]/' | sed 's/const\[.\]/const\[0\]/g' > _ptx2_ggzgPe
GPGPU-Sim PTX: generating ptxinfo using "$CUDA_INSTALL_PATH/bin/ptxas --gpu-name=sm_20 -v _ptx2_ggzgPe --output-file  /dev/null 2> _ptx_1EPIjyinfo"
GPGPU-Sim PTX: Kernel '_Z11kmeansPointPfiiiPiS_S_S0_' : regs=15, lmem=0, smem=0, cmem=88
GPGPU-Sim PTX: Kernel '_Z14invert_mappingPfS_ii' : regs=10, lmem=0, smem=0, cmem=56
GPGPU-Sim PTX: removing ptxinfo using "rm -f _ptx_1EPIjy _ptx2_ggzgPe _ptx_1EPIjyinfo"
GPGPU-Sim PTX: loading globals with explicit initializers... 
GPGPU-Sim PTX: finished loading globals (0 bytes total).
GPGPU-Sim PTX: loading constants with explicit initializers...  done.
GPGPU-Sim PTX: __cudaRegisterFunction _Z14invert_mappingPfS_ii : hostFun 0x0x402a98, fat_cubin_handle = 1
GPGPU-Sim PTX: in __cudaRegisterTexture:
GPGPU-Sim PTX:   int dim = 1
GPGPU-Sim PTX:   int norm = 0
GPGPU-Sim PTX:   int ext = 0
GPGPU-Sim PTX:   Execution warning: Not finished implementing "void __cudaRegisterTexture(void**, const textureReference*, const void**, const char*, int, int, int)"
GPGPU-Sim PTX: in __cudaRegisterTexture:
GPGPU-Sim PTX:   int dim = 1
GPGPU-Sim PTX:   int norm = 0
GPGPU-Sim PTX:   int ext = 0
GPGPU-Sim PTX:   Execution warning: Not finished implementing "void __cudaRegisterTexture(void**, const textureReference*, const void**, const char*, int, int, int)"
GPGPU-Sim PTX: in __cudaRegisterTexture:
GPGPU-Sim PTX:   int dim = 1
GPGPU-Sim PTX:   int norm = 0
GPGPU-Sim PTX:   int ext = 0
GPGPU-Sim PTX:   Execution warning: Not finished implementing "void __cudaRegisterTexture(void**, const textureReference*, const void**, const char*, int, int, int)"

I/O completed

Number of objects: 28672
Number of features: 138

GPGPU-Sim PTX: cudaLaunch for 0x0x402c28 (mode=performance simulation) on stream 0
GPGPU-Sim PTX: pushing kernel '_Z11kmeansPointPfiiiPiS_S_S0_' to stream 0, gridDim= (11,11,1) blockDim = (256,1,1) 
kernel '_Z11kmeansPointPfiiiPiS_S_S0_' transfer to GPU hardware scheduler
GPGPU-Sim uArch: Shader 1 bind to kernel 1 '_Z11kmeansPointPfiiiPiS_S_S0_'
GPGPU-Sim uArch: CTA/core = 6, limited by: threads
GPGPU-Sim uArch: core:  1, cta: 0 initialized @(1,0)
GPGPU-Sim uArch: Shader 2 bind to kernel 1 '_Z11kmeansPointPfiiiPiS_S_S0_'
GPGPU-Sim uArch: core:  2, cta: 0 initialized @(1,0)
GPGPU-Sim uArch: Shader 3 bind to kernel 1 '_Z11kmeansPointPfiiiPiS_S_S0_'
GPGPU-Sim uArch: core:  3, cta: 0 initialized @(1,0)
GPGPU-Sim uArch: Shader 4 bind to kernel 1 '_Z11kmeansPointPfiiiPiS_S_S0_'
GPGPU-Sim uArch: core:  4, cta: 0 initialized @(1,0)
GPGPU-Sim uArch: Shader 5 bind to kernel 1 '_Z11kmeansPointPfiiiPiS_S_S0_'
GPGPU-Sim uArch: core:  5, cta: 0 initialized @(1,0)
GPGPU-Sim uArch: Shader 6 bind to kernel 1 '_Z11kmeansPointPfiiiPiS_S_S0_'
GPGPU-Sim uArch: core:  6, cta: 0 initialized @(1,0)
GPGPU-Sim uArch: Shader 7 bind to kernel 1 '_Z11kmeansPointPfiiiPiS_S_S0_'
GPGPU-Sim uArch: core:  7, cta: 0 initialized @(1,0)
GPGPU-Sim uArch: Shader 8 bind to kernel 1 '_Z11kmeansPointPfiiiPiS_S_S0_'
GPGPU-Sim uArch: core:  8, cta: 0 initialized @(1,0)
GPGPU-Sim uArch: Shader 9 bind to kernel 1 '_Z11kmeansPointPfiiiPiS_S_S0_'
GPGPU-Sim uArch: core:  9, cta: 0 initialized @(1,0)
GPGPU-Sim uArch: Shader 10 bind to kernel 1 '_Z11kmeansPointPfiiiPiS_S_S0_'
GPGPU-Sim uArch: core: 10, cta: 0 initialized @(1,0)
GPGPU-Sim uArch: Shader 11 bind to kernel 1 '_Z11kmeansPointPfiiiPiS_S_S0_'
GPGPU-Sim uArch: core: 11, cta: 0 initialized @(1,0)
GPGPU-Sim uArch: Shader 12 bind to kernel 1 '_Z11kmeansPointPfiiiPiS_S_S0_'
GPGPU-Sim uArch: core: 12, cta: 0 initialized @(1,0)
GPGPU-Sim uArch: Shader 13 bind to kernel 1 '_Z11kmeansPointPfiiiPiS_S_S0_'
GPGPU-Sim uArch: core: 13, cta: 0 initialized @(1,0)
GPGPU-Sim uArch: Shader 14 bind to kernel 1 '_Z11kmeansPointPfiiiPiS_S_S0_'
GPGPU-Sim uArch: core: 14, cta: 0 initialized @(1,0)
GPGPU-Sim uArch: Shader 0 bind to kernel 1 '_Z11kmeansPointPfiiiPiS_S_S0_'
GPGPU-Sim uArch: core:  0, cta: 0 initialized @(1,0)
GPGPU-Sim uArch: core:  1, cta: 1 initialized @(2,0)
GPGPU-Sim uArch: core:  2, cta: 1 initialized @(2,0)
GPGPU-Sim uArch: core:  3, cta: 1 initialized @(2,0)
GPGPU-Sim uArch: core:  4, cta: 1 initialized @(2,0)
GPGPU-Sim uArch: core:  5, cta: 1 initialized @(2,0)
GPGPU-Sim uArch: core:  6, cta: 1 initialized @(2,0)
GPGPU-Sim uArch: core:  7, cta: 1 initialized @(2,0)
GPGPU-Sim uArch: core:  8, cta: 1 initialized @(2,0)
GPGPU-Sim uArch: core:  9, cta: 1 initialized @(2,0)
GPGPU-Sim uArch: core: 10, cta: 1 initialized @(2,0)
GPGPU-Sim uArch: core: 11, cta: 1 initialized @(2,0)
GPGPU-Sim uArch: core: 12, cta: 1 initialized @(2,0)
GPGPU-Sim uArch: core: 13, cta: 1 initialized @(2,0)
GPGPU-Sim uArch: core: 14, cta: 1 initialized @(2,0)
GPGPU-Sim uArch: core:  0, cta: 1 initialized @(2,0)
GPGPU-Sim uArch: core:  1, cta: 2 initialized @(3,0)
GPGPU-Sim uArch: core:  2, cta: 2 initialized @(3,0)
GPGPU-Sim uArch: core:  3, cta: 2 initialized @(3,0)
GPGPU-Sim uArch: core:  4, cta: 2 initialized @(3,0)
GPGPU-Sim uArch: core:  5, cta: 2 initialized @(3,0)
GPGPU-Sim uArch: core:  6, cta: 2 initialized @(3,0)
GPGPU-Sim uArch: core:  7, cta: 2 initialized @(3,0)
GPGPU-Sim uArch: core:  8, cta: 2 initialized @(3,0)
GPGPU-Sim uArch: core:  9, cta: 2 initialized @(3,0)
GPGPU-Sim uArch: core: 10, cta: 2 initialized @(3,0)
GPGPU-Sim uArch: core: 11, cta: 2 initialized @(3,0)
GPGPU-Sim uArch: core: 12, cta: 2 initialized @(3,0)
GPGPU-Sim uArch: core: 13, cta: 2 initialized @(3,0)
GPGPU-Sim uArch: core: 14, cta: 2 initialized @(3,0)
GPGPU-Sim uArch: core:  0, cta: 2 initialized @(3,0)
GPGPU-Sim uArch: core:  1, cta: 3 initialized @(4,0)
GPGPU-Sim uArch: core:  2, cta: 3 initialized @(4,0)
GPGPU-Sim uArch: core:  3, cta: 3 initialized @(4,0)
GPGPU-Sim uArch: core:  4, cta: 3 initialized @(4,0)
GPGPU-Sim uArch: core:  5, cta: 3 initialized @(4,0)
GPGPU-Sim uArch: core:  6, cta: 3 initialized @(4,0)
GPGPU-Sim uArch: core:  7, cta: 3 initialized @(4,0)
GPGPU-Sim uArch: core:  8, cta: 3 initialized @(4,0)
GPGPU-Sim uArch: core:  9, cta: 3 initialized @(4,0)
GPGPU-Sim uArch: core: 10, cta: 3 initialized @(4,0)
GPGPU-Sim uArch: core: 11, cta: 3 initialized @(4,0)
GPGPU-Sim uArch: core: 12, cta: 3 initialized @(4,0)
GPGPU-Sim uArch: core: 13, cta: 3 initialized @(4,0)
GPGPU-Sim uArch: core: 14, cta: 3 initialized @(4,0)
GPGPU-Sim uArch: core:  0, cta: 3 initialized @(4,0)
GPGPU-Sim uArch: core:  1, cta: 4 initialized @(5,0)
GPGPU-Sim uArch: core:  2, cta: 4 initialized @(5,0)
GPGPU-Sim uArch: core:  3, cta: 4 initialized @(5,0)
GPGPU-Sim uArch: core:  4, cta: 4 initialized @(5,0)
GPGPU-Sim uArch: core:  5, cta: 4 initialized @(5,0)
GPGPU-Sim uArch: core:  6, cta: 4 initialized @(5,0)
GPGPU-Sim uArch: core:  7, cta: 4 initialized @(5,0)
GPGPU-Sim uArch: core:  8, cta: 4 initialized @(5,0)
GPGPU-Sim uArch: core:  9, cta: 4 initialized @(5,0)
GPGPU-Sim uArch: core: 10, cta: 4 initialized @(5,0)
GPGPU-Sim uArch: core: 11, cta: 4 initialized @(5,0)
GPGPU-Sim uArch: core: 12, cta: 4 initialized @(5,0)
GPGPU-Sim uArch: core: 13, cta: 4 initialized @(5,0)
GPGPU-Sim uArch: core: 14, cta: 4 initialized @(5,0)
GPGPU-Sim uArch: core:  0, cta: 4 initialized @(5,0)
GPGPU-Sim uArch: core:  1, cta: 5 initialized @(6,0)
GPGPU-Sim uArch: core:  2, cta: 5 initialized @(6,0)
GPGPU-Sim uArch: core:  3, cta: 5 initialized @(6,0)
GPGPU-Sim uArch: core:  4, cta: 5 initialized @(6,0)
GPGPU-Sim uArch: core:  5, cta: 5 initialized @(6,0)
GPGPU-Sim uArch: core:  6, cta: 5 initialized @(6,0)
GPGPU-Sim uArch: core:  7, cta: 5 initialized @(6,0)
GPGPU-Sim uArch: core:  8, cta: 5 initialized @(6,0)
GPGPU-Sim uArch: core:  9, cta: 5 initialized @(6,0)
GPGPU-Sim uArch: core: 10, cta: 5 initialized @(6,0)
GPGPU-Sim uArch: core: 11, cta: 5 initialized @(6,0)
GPGPU-Sim uArch: core: 12, cta: 5 initialized @(6,0)
GPGPU-Sim uArch: core: 13, cta: 5 initialized @(6,0)
GPGPU-Sim uArch: core: 14, cta: 5 initialized @(6,0)
GPGPU-Sim uArch: core:  0, cta: 5 initialized @(6,0)
GPGPU-Sim PTX: 100000 instructions simulated : ctaid=(7,7,0) tid=(159,0,0)
GPGPU-Sim uArch: cycles simulated: 500  inst.: 147456 (ipc=294.9) sim_rate=73728 (inst/sec) elapsed = 0:0:00:02 / Wed Apr 17 12:24:47 2019
GPGPU-Sim PTX: 200000 instructions simulated : ctaid=(2,2,0) tid=(223,0,0)
GPGPU-Sim PTX: 300000 instructions simulated : ctaid=(3,5,0) tid=(255,0,0)
GPGPU-Sim PTX: 400000 instructions simulated : ctaid=(9,7,0) tid=(191,0,0)
GPGPU-Sim PTX: 500000 instructions simulated : ctaid=(9,4,0) tid=(191,0,0)
GPGPU-Sim PTX: 600000 instructions simulated : ctaid=(3,5,0) tid=(223,0,0)
GPGPU-Sim uArch: cycles simulated: 1500  inst.: 615616 (ipc=410.4) sim_rate=205205 (inst/sec) elapsed = 0:0:00:03 / Wed Apr 17 12:24:48 2019
GPGPU-Sim PTX: 700000 instructions simulated : ctaid=(1,4,0) tid=(159,0,0)
GPGPU-Sim PTX: 800000 instructions simulated : ctaid=(4,5,0) tid=(31,0,0)
GPGPU-Sim PTX: 900000 instructions simulated : ctaid=(2,1,0) tid=(191,0,0)
GPGPU-Sim uArch: cycles simulated: 2000  inst.: 850304 (ipc=425.2) sim_rate=212576 (inst/sec) elapsed = 0:0:00:04 / Wed Apr 17 12:24:49 2019
GPGPU-Sim uArch: cycles simulated: 3000  inst.: 854368 (ipc=284.8) sim_rate=170873 (inst/sec) elapsed = 0:0:00:05 / Wed Apr 17 12:24:50 2019
GPGPU-Sim uArch: cycles simulated: 5000  inst.: 887872 (ipc=177.6) sim_rate=147978 (inst/sec) elapsed = 0:0:00:06 / Wed Apr 17 12:24:51 2019
GPGPU-Sim uArch: cycles simulated: 6000  inst.: 912544 (ipc=152.1) sim_rate=130363 (inst/sec) elapsed = 0:0:00:07 / Wed Apr 17 12:24:52 2019
GPGPU-Sim PTX: 1000000 instructions simulated : ctaid=(10,0,0) tid=(31,0,0)
GPGPU-Sim uArch: cycles simulated: 7000  inst.: 952992 (ipc=136.1) sim_rate=119124 (inst/sec) elapsed = 0:0:00:08 / Wed Apr 17 12:24:53 2019
GPGPU-Sim uArch: cycles simulated: 8000  inst.: 1012640 (ipc=126.6) sim_rate=112515 (inst/sec) elapsed = 0:0:00:09 / Wed Apr 17 12:24:54 2019
GPGPU-Sim PTX: 1100000 instructions simulated : ctaid=(2,1,0) tid=(191,0,0)
GPGPU-Sim uArch: cycles simulated: 8500  inst.: 1058816 (ipc=124.6) sim_rate=105881 (inst/sec) elapsed = 0:0:00:10 / Wed Apr 17 12:24:55 2019
GPGPU-Sim PTX: 1200000 instructions simulated : ctaid=(10,1,0) tid=(95,0,0)
GPGPU-Sim uArch: cycles simulated: 9500  inst.: 1168736 (ipc=123.0) sim_rate=106248 (inst/sec) elapsed = 0:0:00:11 / Wed Apr 17 12:24:56 2019
GPGPU-Sim PTX: 1300000 instructions simulated : ctaid=(6,0,0) tid=(63,0,0)
GPGPU-Sim PTX: 1400000 instructions simulated : ctaid=(3,2,0) tid=(31,0,0)
GPGPU-Sim uArch: cycles simulated: 11000  inst.: 1370080 (ipc=124.6) sim_rate=114173 (inst/sec) elapsed = 0:0:00:12 / Wed Apr 17 12:24:57 2019
GPGPU-Sim PTX: 1500000 instructions simulated : ctaid=(4,2,0) tid=(31,0,0)
GPGPU-Sim PTX: 1600000 instructions simulated : ctaid=(2,1,0) tid=(95,0,0)
GPGPU-Sim uArch: cycles simulated: 12000  inst.: 1535424 (ipc=128.0) sim_rate=118109 (inst/sec) elapsed = 0:0:00:13 / Wed Apr 17 12:24:58 2019
GPGPU-Sim PTX: 1700000 instructions simulated : ctaid=(10,1,0) tid=(31,0,0)
GPGPU-Sim PTX: 1800000 instructions simulated : ctaid=(2,2,0) tid=(223,0,0)
GPGPU-Sim uArch: cycles simulated: 13500  inst.: 1775552 (ipc=131.5) sim_rate=126825 (inst/sec) elapsed = 0:0:00:14 / Wed Apr 17 12:24:59 2019
GPGPU-Sim PTX: 1900000 instructions simulated : ctaid=(1,2,0) tid=(159,0,0)
GPGPU-Sim uArch: cycles simulated: 14000  inst.: 1857696 (ipc=132.7) sim_rate=123846 (inst/sec) elapsed = 0:0:00:15 / Wed Apr 17 12:25:00 2019
GPGPU-Sim PTX: 2000000 instructions simulated : ctaid=(0,0,0) tid=(63,0,0)
GPGPU-Sim PTX: 2100000 instructions simulated : ctaid=(4,2,0) tid=(95,0,0)
GPGPU-Sim uArch: cycles simulated: 15000  inst.: 2026080 (ipc=135.1) sim_rate=126630 (inst/sec) elapsed = 0:0:00:16 / Wed Apr 17 12:25:01 2019
GPGPU-Sim PTX: 2200000 instructions simulated : ctaid=(10,1,0) tid=(223,0,0)
GPGPU-Sim uArch: cycles simulated: 16000  inst.: 2193728 (ipc=137.1) sim_rate=129042 (inst/sec) elapsed = 0:0:00:17 / Wed Apr 17 12:25:02 2019
GPGPU-Sim PTX: 2300000 instructions simulated : ctaid=(6,0,0) tid=(31,0,0)
GPGPU-Sim uArch: cycles simulated: 16500  inst.: 2279872 (ipc=138.2) sim_rate=126659 (inst/sec) elapsed = 0:0:00:18 / Wed Apr 17 12:25:03 2019
GPGPU-Sim PTX: 2400000 instructions simulated : ctaid=(5,2,0) tid=(31,0,0)
GPGPU-Sim PTX: 2500000 instructions simulated : ctaid=(0,1,0) tid=(255,0,0)
GPGPU-Sim uArch: cycles simulated: 17500  inst.: 2438752 (ipc=139.4) sim_rate=128355 (inst/sec) elapsed = 0:0:00:19 / Wed Apr 17 12:25:04 2019
GPGPU-Sim PTX: 2600000 instructions simulated : ctaid=(2,2,0) tid=(223,0,0)
GPGPU-Sim uArch: cycles simulated: 18500  inst.: 2610112 (ipc=141.1) sim_rate=130505 (inst/sec) elapsed = 0:0:00:20 / Wed Apr 17 12:25:05 2019
GPGPU-Sim PTX: 2700000 instructions simulated : ctaid=(0,0,0) tid=(95,0,0)
GPGPU-Sim PTX: 2800000 instructions simulated : ctaid=(3,1,0) tid=(223,0,0)
GPGPU-Sim uArch: cycles simulated: 19500  inst.: 2780864 (ipc=142.6) sim_rate=132422 (inst/sec) elapsed = 0:0:00:21 / Wed Apr 17 12:25:06 2019
GPGPU-Sim PTX: 2900000 instructions simulated : ctaid=(6,1,0) tid=(159,0,0)
GPGPU-Sim uArch: cycles simulated: 20000  inst.: 2868384 (ipc=143.4) sim_rate=130381 (inst/sec) elapsed = 0:0:00:22 / Wed Apr 17 12:25:07 2019
GPGPU-Sim PTX: 3000000 instructions simulated : ctaid=(1,0,0) tid=(159,0,0)
GPGPU-Sim PTX: 3100000 instructions simulated : ctaid=(8,1,0) tid=(95,0,0)
GPGPU-Sim uArch: cycles simulated: 21000  inst.: 3043360 (ipc=144.9) sim_rate=132320 (inst/sec) elapsed = 0:0:00:23 / Wed Apr 17 12:25:08 2019
GPGPU-Sim PTX: 3200000 instructions simulated : ctaid=(1,1,0) tid=(95,0,0)
GPGPU-Sim PTX: 3300000 instructions simulated : ctaid=(7,2,0) tid=(31,0,0)
GPGPU-Sim uArch: cycles simulated: 22500  inst.: 3301792 (ipc=146.7) sim_rate=137574 (inst/sec) elapsed = 0:0:00:24 / Wed Apr 17 12:25:09 2019
GPGPU-Sim PTX: 3400000 instructions simulated : ctaid=(1,2,0) tid=(223,0,0)
GPGPU-Sim PTX: 3500000 instructions simulated : ctaid=(2,1,0) tid=(63,0,0)
GPGPU-Sim PTX: 3600000 instructions simulated : ctaid=(10,0,0) tid=(95,0,0)
GPGPU-Sim uArch: cycles simulated: 24000  inst.: 3566144 (ipc=148.6) sim_rate=142645 (inst/sec) elapsed = 0:0:00:25 / Wed Apr 17 12:25:10 2019
GPGPU-Sim PTX: 3700000 instructions simulated : ctaid=(3,0,0) tid=(95,0,0)
GPGPU-Sim PTX: 3800000 instructions simulated : ctaid=(0,1,0) tid=(63,0,0)
GPGPU-Sim uArch: cycles simulated: 25000  inst.: 3736384 (ipc=149.5) sim_rate=143707 (inst/sec) elapsed = 0:0:00:26 / Wed Apr 17 12:25:11 2019
GPGPU-Sim PTX: 3900000 instructions simulated : ctaid=(4,1,0) tid=(95,0,0)
GPGPU-Sim uArch: cycles simulated: 25500  inst.: 3825664 (ipc=150.0) sim_rate=141691 (inst/sec) elapsed = 0:0:00:27 / Wed Apr 17 12:25:12 2019
GPGPU-Sim PTX: 4000000 instructions simulated : ctaid=(6,0,0) tid=(127,0,0)
GPGPU-Sim uArch: cycles simulated: 26500  inst.: 4002976 (ipc=151.1) sim_rate=142963 (inst/sec) elapsed = 0:0:00:28 / Wed Apr 17 12:25:13 2019
GPGPU-Sim PTX: 4100000 instructions simulated : ctaid=(1,0,0) tid=(31,0,0)
GPGPU-Sim PTX: 4200000 instructions simulated : ctaid=(4,1,0) tid=(223,0,0)
GPGPU-Sim uArch: cycles simulated: 27500  inst.: 4170976 (ipc=151.7) sim_rate=143826 (inst/sec) elapsed = 0:0:00:29 / Wed Apr 17 12:25:14 2019
GPGPU-Sim PTX: 4300000 instructions simulated : ctaid=(1,0,0) tid=(223,0,0)
GPGPU-Sim PTX: 4400000 instructions simulated : ctaid=(0,1,0) tid=(159,0,0)
GPGPU-Sim uArch: cycles simulated: 28500  inst.: 4343232 (ipc=152.4) sim_rate=144774 (inst/sec) elapsed = 0:0:00:30 / Wed Apr 17 12:25:15 2019
GPGPU-Sim PTX: 4500000 instructions simulated : ctaid=(6,0,0) tid=(191,0,0)
GPGPU-Sim uArch: cycles simulated: 29500  inst.: 4518432 (ipc=153.2) sim_rate=145755 (inst/sec) elapsed = 0:0:00:31 / Wed Apr 17 12:25:16 2019
GPGPU-Sim PTX: 4600000 instructions simulated : ctaid=(1,1,0) tid=(159,0,0)
GPGPU-Sim PTX: 4700000 instructions simulated : ctaid=(2,1,0) tid=(223,0,0)
GPGPU-Sim uArch: cycles simulated: 30500  inst.: 4692960 (ipc=153.9) sim_rate=146655 (inst/sec) elapsed = 0:0:00:32 / Wed Apr 17 12:25:17 2019
GPGPU-Sim PTX: 4800000 instructions simulated : ctaid=(4,0,0) tid=(159,0,0)
GPGPU-Sim uArch: cycles simulated: 31000  inst.: 4777280 (ipc=154.1) sim_rate=144766 (inst/sec) elapsed = 0:0:00:33 / Wed Apr 17 12:25:18 2019
GPGPU-Sim PTX: 4900000 instructions simulated : ctaid=(0,1,0) tid=(63,0,0)
GPGPU-Sim PTX: 5000000 instructions simulated : ctaid=(9,1,0) tid=(159,0,0)
GPGPU-Sim uArch: cycles simulated: 32000  inst.: 4955584 (ipc=154.9) sim_rate=145752 (inst/sec) elapsed = 0:0:00:34 / Wed Apr 17 12:25:19 2019
GPGPU-Sim PTX: 5100000 instructions simulated : ctaid=(6,0,0) tid=(223,0,0)
GPGPU-Sim PTX: 5200000 instructions simulated : ctaid=(4,0,0) tid=(95,0,0)
GPGPU-Sim uArch: cycles simulated: 33000  inst.: 5125792 (ipc=155.3) sim_rate=146451 (inst/sec) elapsed = 0:0:00:35 / Wed Apr 17 12:25:20 2019
GPGPU-Sim uArch: cycles simulated: 33500  inst.: 5206848 (ipc=155.4) sim_rate=144634 (inst/sec) elapsed = 0:0:00:36 / Wed Apr 17 12:25:21 2019
GPGPU-Sim PTX: 5300000 instructions simulated : ctaid=(5,1,0) tid=(63,0,0)
GPGPU-Sim PTX: 5400000 instructions simulated : ctaid=(7,1,0) tid=(31,0,0)
GPGPU-Sim uArch: cycles simulated: 34500  inst.: 5381696 (ipc=156.0) sim_rate=145451 (inst/sec) elapsed = 0:0:00:37 / Wed Apr 17 12:25:22 2019
GPGPU-Sim PTX: 5500000 instructions simulated : ctaid=(0,1,0) tid=(127,0,0)
GPGPU-Sim uArch: cycles simulated: 35000  inst.: 5469920 (ipc=156.3) sim_rate=143945 (inst/sec) elapsed = 0:0:00:38 / Wed Apr 17 12:25:23 2019
GPGPU-Sim PTX: 5600000 instructions simulated : ctaid=(7,1,0) tid=(159,0,0)
GPGPU-Sim uArch: cycles simulated: 35500  inst.: 5552864 (ipc=156.4) sim_rate=142381 (inst/sec) elapsed = 0:0:00:39 / Wed Apr 17 12:25:24 2019
GPGPU-Sim PTX: 5700000 instructions simulated : ctaid=(2,1,0) tid=(95,0,0)
GPGPU-Sim uArch: cycles simulated: 36000  inst.: 5644128 (ipc=156.8) sim_rate=141103 (inst/sec) elapsed = 0:0:00:40 / Wed Apr 17 12:25:25 2019
GPGPU-Sim PTX: 5800000 instructions simulated : ctaid=(3,1,0) tid=(159,0,0)
GPGPU-Sim uArch: cycles simulated: 37000  inst.: 5810592 (ipc=157.0) sim_rate=141721 (inst/sec) elapsed = 0:0:00:41 / Wed Apr 17 12:25:26 2019
GPGPU-Sim PTX: 5900000 instructions simulated : ctaid=(5,0,0) tid=(31,0,0)
GPGPU-Sim uArch: cycles simulated: 37500  inst.: 5898080 (ipc=157.3) sim_rate=140430 (inst/sec) elapsed = 0:0:00:42 / Wed Apr 17 12:25:27 2019
GPGPU-Sim PTX: 6000000 instructions simulated : ctaid=(1,1,0) tid=(255,0,0)
GPGPU-Sim PTX: 6100000 instructions simulated : ctaid=(5,0,0) tid=(223,0,0)
GPGPU-Sim uArch: cycles simulated: 38500  inst.: 6059104 (ipc=157.4) sim_rate=140909 (inst/sec) elapsed = 0:0:00:43 / Wed Apr 17 12:25:28 2019
GPGPU-Sim PTX: 6200000 instructions simulated : ctaid=(3,1,0) tid=(191,0,0)
GPGPU-Sim uArch: cycles simulated: 39000  inst.: 6142016 (ipc=157.5) sim_rate=139591 (inst/sec) elapsed = 0:0:00:44 / Wed Apr 17 12:25:29 2019
GPGPU-Sim PTX: 6300000 instructions simulated : ctaid=(6,0,0) tid=(63,0,0)
GPGPU-Sim uArch: cycles simulated: 40000  inst.: 6313152 (ipc=157.8) sim_rate=140292 (inst/sec) elapsed = 0:0:00:45 / Wed Apr 17 12:25:30 2019
GPGPU-Sim PTX: 6400000 instructions simulated : ctaid=(2,0,0) tid=(159,0,0)
GPGPU-Sim uArch: cycles simulated: 40500  inst.: 6395872 (ipc=157.9) sim_rate=139040 (inst/sec) elapsed = 0:0:00:46 / Wed Apr 17 12:25:31 2019
GPGPU-Sim PTX: 6500000 instructions simulated : ctaid=(6,2,0) tid=(95,0,0)
GPGPU-Sim PTX: 6600000 instructions simulated : ctaid=(8,0,0) tid=(255,0,0)
GPGPU-Sim uArch: cycles simulated: 41500  inst.: 6570848 (ipc=158.3) sim_rate=139805 (inst/sec) elapsed = 0:0:00:47 / Wed Apr 17 12:25:32 2019
GPGPU-Sim PTX: 6700000 instructions simulated : ctaid=(9,2,0) tid=(31,0,0)
GPGPU-Sim PTX: 6800000 instructions simulated : ctaid=(1,2,0) tid=(95,0,0)
GPGPU-Sim uArch: cycles simulated: 42500  inst.: 6736832 (ipc=158.5) sim_rate=140350 (inst/sec) elapsed = 0:0:00:48 / Wed Apr 17 12:25:33 2019
GPGPU-Sim uArch: cycles simulated: 43000  inst.: 6816192 (ipc=158.5) sim_rate=139105 (inst/sec) elapsed = 0:0:00:49 / Wed Apr 17 12:25:34 2019
GPGPU-Sim PTX: 6900000 instructions simulated : ctaid=(6,0,0) tid=(63,0,0)
GPGPU-Sim PTX: 7000000 instructions simulated : ctaid=(5,1,0) tid=(95,0,0)
GPGPU-Sim uArch: cycles simulated: 44000  inst.: 6988000 (ipc=158.8) sim_rate=139760 (inst/sec) elapsed = 0:0:00:50 / Wed Apr 17 12:25:35 2019
GPGPU-Sim PTX: 7100000 instructions simulated : ctaid=(4,1,0) tid=(95,0,0)
GPGPU-Sim uArch: cycles simulated: 44500  inst.: 7070624 (ipc=158.9) sim_rate=138639 (inst/sec) elapsed = 0:0:00:51 / Wed Apr 17 12:25:36 2019
GPGPU-Sim PTX: 7200000 instructions simulated : ctaid=(3,2,0) tid=(159,0,0)
GPGPU-Sim uArch: cycles simulated: 45000  inst.: 7151808 (ipc=158.9) sim_rate=137534 (inst/sec) elapsed = 0:0:00:52 / Wed Apr 17 12:25:37 2019
GPGPU-Sim PTX: 7300000 instructions simulated : ctaid=(0,2,0) tid=(31,0,0)
GPGPU-Sim uArch: cycles simulated: 45500  inst.: 7240160 (ipc=159.1) sim_rate=136606 (inst/sec) elapsed = 0:0:00:53 / Wed Apr 17 12:25:38 2019
GPGPU-Sim PTX: 7400000 instructions simulated : ctaid=(1,1,0) tid=(95,0,0)
GPGPU-Sim uArch: cycles simulated: 46500  inst.: 7413536 (ipc=159.4) sim_rate=137287 (inst/sec) elapsed = 0:0:00:54 / Wed Apr 17 12:25:39 2019
GPGPU-Sim PTX: 7500000 instructions simulated : ctaid=(10,0,0) tid=(127,0,0)
GPGPU-Sim uArch: cycles simulated: 47000  inst.: 7499936 (ipc=159.6) sim_rate=136362 (inst/sec) elapsed = 0:0:00:55 / Wed Apr 17 12:25:40 2019
GPGPU-Sim PTX: 7600000 instructions simulated : ctaid=(4,1,0) tid=(95,0,0)
GPGPU-Sim PTX: 7700000 instructions simulated : ctaid=(4,0,0) tid=(159,0,0)
GPGPU-Sim uArch: cycles simulated: 48000  inst.: 7668992 (ipc=159.8) sim_rate=136946 (inst/sec) elapsed = 0:0:00:56 / Wed Apr 17 12:25:41 2019
GPGPU-Sim PTX: 7800000 instructions simulated : ctaid=(3,1,0) tid=(95,0,0)
GPGPU-Sim PTX: 7900000 instructions simulated : ctaid=(6,0,0) tid=(127,0,0)
GPGPU-Sim uArch: cycles simulated: 49000  inst.: 7847520 (ipc=160.2) sim_rate=137675 (inst/sec) elapsed = 0:0:00:57 / Wed Apr 17 12:25:42 2019
GPGPU-Sim PTX: 8000000 instructions simulated : ctaid=(4,0,0) tid=(223,0,0)
GPGPU-Sim uArch: cycles simulated: 50000  inst.: 8023808 (ipc=160.5) sim_rate=138341 (inst/sec) elapsed = 0:0:00:58 / Wed Apr 17 12:25:43 2019
GPGPU-Sim PTX: 8100000 instructions simulated : ctaid=(2,1,0) tid=(95,0,0)
GPGPU-Sim uArch: cycles simulated: 50500  inst.: 8104608 (ipc=160.5) sim_rate=137366 (inst/sec) elapsed = 0:0:00:59 / Wed Apr 17 12:25:44 2019
GPGPU-Sim PTX: 8200000 instructions simulated : ctaid=(5,2,0) tid=(31,0,0)
GPGPU-Sim PTX: 8300000 instructions simulated : ctaid=(7,1,0) tid=(223,0,0)
GPGPU-Sim PTX: 8400000 instructions simulated : ctaid=(1,1,0) tid=(255,0,0)
GPGPU-Sim uArch: cycles simulated: 52000  inst.: 8371776 (ipc=161.0) sim_rate=139529 (inst/sec) elapsed = 0:0:01:00 / Wed Apr 17 12:25:45 2019
GPGPU-Sim PTX: 8500000 instructions simulated : ctaid=(5,0,0) tid=(95,0,0)
GPGPU-Sim PTX: 8600000 instructions simulated : ctaid=(1,0,0) tid=(159,0,0)
GPGPU-Sim uArch: cycles simulated: 53000  inst.: 8547232 (ipc=161.3) sim_rate=140118 (inst/sec) elapsed = 0:0:01:01 / Wed Apr 17 12:25:46 2019
GPGPU-Sim PTX: 8700000 instructions simulated : ctaid=(4,0,0) tid=(31,0,0)
GPGPU-Sim PTX: 8800000 instructions simulated : ctaid=(1,1,0) tid=(159,0,0)
GPGPU-Sim uArch: cycles simulated: 54000  inst.: 8729120 (ipc=161.7) sim_rate=140792 (inst/sec) elapsed = 0:0:01:02 / Wed Apr 17 12:25:47 2019
GPGPU-Sim PTX: 8900000 instructions simulated : ctaid=(0,1,0) tid=(159,0,0)
GPGPU-Sim PTX: 9000000 instructions simulated : ctaid=(1,2,0) tid=(31,0,0)
GPGPU-Sim uArch: cycles simulated: 55500  inst.: 8992608 (ipc=162.0) sim_rate=142739 (inst/sec) elapsed = 0:0:01:03 / Wed Apr 17 12:25:48 2019
GPGPU-Sim PTX: 9100000 instructions simulated : ctaid=(9,0,0) tid=(159,0,0)
GPGPU-Sim PTX: 9200000 instructions simulated : ctaid=(6,1,0) tid=(159,0,0)
GPGPU-Sim PTX: 9300000 instructions simulated : ctaid=(3,1,0) tid=(223,0,0)
GPGPU-Sim uArch: cycles simulated: 57000  inst.: 9261536 (ipc=162.5) sim_rate=144711 (inst/sec) elapsed = 0:0:01:04 / Wed Apr 17 12:25:49 2019
GPGPU-Sim PTX: 9400000 instructions simulated : ctaid=(2,2,0) tid=(95,0,0)
GPGPU-Sim PTX: 9500000 instructions simulated : ctaid=(7,1,0) tid=(95,0,0)
GPGPU-Sim uArch: cycles simulated: 58000  inst.: 9438368 (ipc=162.7) sim_rate=145205 (inst/sec) elapsed = 0:0:01:05 / Wed Apr 17 12:25:50 2019
GPGPU-Sim PTX: 9600000 instructions simulated : ctaid=(7,0,0) tid=(159,0,0)
GPGPU-Sim uArch: cycles simulated: 59000  inst.: 9604320 (ipc=162.8) sim_rate=145520 (inst/sec) elapsed = 0:0:01:06 / Wed Apr 17 12:25:51 2019
GPGPU-Sim PTX: 9700000 instructions simulated : ctaid=(6,1,0) tid=(223,0,0)
GPGPU-Sim PTX: 9800000 instructions simulated : ctaid=(5,1,0) tid=(95,0,0)
GPGPU-Sim PTX: 9900000 instructions simulated : ctaid=(9,0,0) tid=(159,0,0)
GPGPU-Sim uArch: cycles simulated: 60500  inst.: 9864576 (ipc=163.1) sim_rate=147232 (inst/sec) elapsed = 0:0:01:07 / Wed Apr 17 12:25:52 2019
GPGPU-Sim PTX: 10000000 instructions simulated : ctaid=(0,1,0) tid=(223,0,0)
GPGPU-Sim PTX: 10100000 instructions simulated : ctaid=(5,0,0) tid=(127,0,0)
GPGPU-Sim uArch: cycles simulated: 61500  inst.: 10048672 (ipc=163.4) sim_rate=147774 (inst/sec) elapsed = 0:0:01:08 / Wed Apr 17 12:25:53 2019
GPGPU-Sim PTX: 10200000 instructions simulated : ctaid=(6,1,0) tid=(31,0,0)
GPGPU-Sim PTX: 10300000 instructions simulated : ctaid=(2,2,0) tid=(223,0,0)
GPGPU-Sim uArch: cycles simulated: 63000  inst.: 10303552 (ipc=163.5) sim_rate=149326 (inst/sec) elapsed = 0:0:01:09 / Wed Apr 17 12:25:54 2019
GPGPU-Sim PTX: 10400000 instructions simulated : ctaid=(2,1,0) tid=(159,0,0)
GPGPU-Sim uArch: cycles simulated: 63500  inst.: 10386464 (ipc=163.6) sim_rate=148378 (inst/sec) elapsed = 0:0:01:10 / Wed Apr 17 12:25:55 2019
GPGPU-Sim PTX: 10500000 instructions simulated : ctaid=(4,2,0) tid=(95,0,0)
GPGPU-Sim PTX: 10600000 instructions simulated : ctaid=(3,0,0) tid=(95,0,0)
GPGPU-Sim uArch: cycles simulated: 64500  inst.: 10560320 (ipc=163.7) sim_rate=148736 (inst/sec) elapsed = 0:0:01:11 / Wed Apr 17 12:25:56 2019
GPGPU-Sim PTX: 10700000 instructions simulated : ctaid=(4,0,0) tid=(159,0,0)
GPGPU-Sim PTX: 10800000 instructions simulated : ctaid=(9,0,0) tid=(159,0,0)
GPGPU-Sim uArch: cycles simulated: 65500  inst.: 10733536 (ipc=163.9) sim_rate=149076 (inst/sec) elapsed = 0:0:01:12 / Wed Apr 17 12:25:57 2019
GPGPU-Sim PTX: 10900000 instructions simulated : ctaid=(3,0,0) tid=(31,0,0)
GPGPU-Sim uArch: cycles simulated: 66500  inst.: 10906656 (ipc=164.0) sim_rate=149406 (inst/sec) elapsed = 0:0:01:13 / Wed Apr 17 12:25:58 2019
GPGPU-Sim PTX: 11000000 instructions simulated : ctaid=(0,0,0) tid=(31,0,0)
GPGPU-Sim PTX: 11100000 instructions simulated : ctaid=(6,2,0) tid=(31,0,0)
GPGPU-Sim PTX: 11200000 instructions simulated : ctaid=(4,1,0) tid=(95,0,0)
GPGPU-Sim uArch: cycles simulated: 68000  inst.: 11169824 (ipc=164.3) sim_rate=150943 (inst/sec) elapsed = 0:0:01:14 / Wed Apr 17 12:25:59 2019
GPGPU-Sim PTX: 11300000 instructions simulated : ctaid=(2,1,0) tid=(159,0,0)
GPGPU-Sim PTX: 11400000 instructions simulated : ctaid=(6,0,0) tid=(159,0,0)
GPGPU-Sim PTX: 11500000 instructions simulated : ctaid=(3,1,0) tid=(63,0,0)
GPGPU-Sim uArch: cycles simulated: 69500  inst.: 11426720 (ipc=164.4) sim_rate=152356 (inst/sec) elapsed = 0:0:01:15 / Wed Apr 17 12:26:00 2019
GPGPU-Sim PTX: 11600000 instructions simulated : ctaid=(8,0,0) tid=(159,0,0)
GPGPU-Sim uArch: cycles simulated: 70500  inst.: 11600288 (ipc=164.5) sim_rate=152635 (inst/sec) elapsed = 0:0:01:16 / Wed Apr 17 12:26:01 2019
GPGPU-Sim PTX: 11700000 instructions simulated : ctaid=(4,0,0) tid=(63,0,0)
GPGPU-Sim uArch: cycles simulated: 71000  inst.: 11687264 (ipc=164.6) sim_rate=151782 (inst/sec) elapsed = 0:0:01:17 / Wed Apr 17 12:26:02 2019
GPGPU-Sim PTX: 11800000 instructions simulated : ctaid=(3,0,0) tid=(159,0,0)
GPGPU-Sim PTX: 11900000 instructions simulated : ctaid=(5,0,0) tid=(159,0,0)
GPGPU-Sim PTX: 12000000 instructions simulated : ctaid=(4,1,0) tid=(159,0,0)
GPGPU-Sim uArch: cycles simulated: 72500  inst.: 11957888 (ipc=164.9) sim_rate=153306 (inst/sec) elapsed = 0:0:01:18 / Wed Apr 17 12:26:03 2019
GPGPU-Sim PTX: 12100000 instructions simulated : ctaid=(5,2,0) tid=(95,0,0)
GPGPU-Sim PTX: 12200000 instructions simulated : ctaid=(2,1,0) tid=(159,0,0)
GPGPU-Sim PTX: 12300000 instructions simulated : ctaid=(9,0,0) tid=(159,0,0)
GPGPU-Sim uArch: cycles simulated: 74000  inst.: 12228832 (ipc=165.3) sim_rate=154795 (inst/sec) elapsed = 0:0:01:19 / Wed Apr 17 12:26:04 2019
GPGPU-Sim uArch: cycles simulated: 74500  inst.: 12311680 (ipc=165.3) sim_rate=153896 (inst/sec) elapsed = 0:0:01:20 / Wed Apr 17 12:26:05 2019
GPGPU-Sim PTX: 12400000 instructions simulated : ctaid=(5,1,0) tid=(95,0,0)
GPGPU-Sim PTX: 12500000 instructions simulated : ctaid=(1,1,0) tid=(95,0,0)
GPGPU-Sim PTX: 12600000 instructions simulated : ctaid=(6,1,0) tid=(31,0,0)
GPGPU-Sim uArch: cycles simulated: 76000  inst.: 12571936 (ipc=165.4) sim_rate=155209 (inst/sec) elapsed = 0:0:01:21 / Wed Apr 17 12:26:06 2019
GPGPU-Sim PTX: 12700000 instructions simulated : ctaid=(8,0,0) tid=(31,0,0)
GPGPU-Sim PTX: 12800000 instructions simulated : ctaid=(0,2,0) tid=(223,0,0)
GPGPU-Sim uArch: cycles simulated: 77000  inst.: 12744672 (ipc=165.5) sim_rate=155422 (inst/sec) elapsed = 0:0:01:22 / Wed Apr 17 12:26:07 2019
GPGPU-Sim PTX: 12900000 instructions simulated : ctaid=(3,1,0) tid=(191,0,0)
GPGPU-Sim PTX: 13000000 instructions simulated : ctaid=(3,0,0) tid=(31,0,0)
GPGPU-Sim uArch: cycles simulated: 78500  inst.: 12988128 (ipc=165.5) sim_rate=156483 (inst/sec) elapsed = 0:0:01:23 / Wed Apr 17 12:26:08 2019
GPGPU-Sim PTX: 13100000 instructions simulated : ctaid=(0,1,0) tid=(127,0,0)
GPGPU-Sim uArch: cycles simulated: 79000  inst.: 13068992 (ipc=165.4) sim_rate=155583 (inst/sec) elapsed = 0:0:01:24 / Wed Apr 17 12:26:09 2019
GPGPU-Sim PTX: 13200000 instructions simulated : ctaid=(9,1,0) tid=(95,0,0)
GPGPU-Sim uArch: cycles simulated: 79500  inst.: 13157088 (ipc=165.5) sim_rate=154789 (inst/sec) elapsed = 0:0:01:25 / Wed Apr 17 12:26:10 2019
GPGPU-Sim PTX: 13300000 instructions simulated : ctaid=(2,0,0) tid=(223,0,0)
GPGPU-Sim uArch: cycles simulated: 80000  inst.: 13245984 (ipc=165.6) sim_rate=154023 (inst/sec) elapsed = 0:0:01:26 / Wed Apr 17 12:26:11 2019
GPGPU-Sim PTX: 13400000 instructions simulated : ctaid=(8,0,0) tid=(223,0,0)
GPGPU-Sim PTX: 13500000 instructions simulated : ctaid=(1,1,0) tid=(95,0,0)
GPGPU-Sim uArch: cycles simulated: 81000  inst.: 13412192 (ipc=165.6) sim_rate=154163 (inst/sec) elapsed = 0:0:01:27 / Wed Apr 17 12:26:12 2019
GPGPU-Sim uArch: cycles simulated: 81500  inst.: 13501184 (ipc=165.7) sim_rate=153422 (inst/sec) elapsed = 0:0:01:28 / Wed Apr 17 12:26:13 2019
GPGPU-Sim PTX: 13600000 instructions simulated : ctaid=(5,0,0) tid=(31,0,0)
GPGPU-Sim PTX: 13700000 instructions simulated : ctaid=(8,0,0) tid=(223,0,0)
GPGPU-Sim uArch: cycles simulated: 82500  inst.: 13674048 (ipc=165.7) sim_rate=153640 (inst/sec) elapsed = 0:0:01:29 / Wed Apr 17 12:26:14 2019
GPGPU-Sim PTX: 13800000 instructions simulated : ctaid=(3,1,0) tid=(63,0,0)
GPGPU-Sim uArch: cycles simulated: 83000  inst.: 13763296 (ipc=165.8) sim_rate=152925 (inst/sec) elapsed = 0:0:01:30 / Wed Apr 17 12:26:15 2019
GPGPU-Sim PTX: 13900000 instructions simulated : ctaid=(0,3,0) tid=(31,0,0)
GPGPU-Sim PTX: 14000000 instructions simulated : ctaid=(0,0,0) tid=(31,0,0)
GPGPU-Sim uArch: cycles simulated: 84000  inst.: 13934784 (ipc=165.9) sim_rate=153129 (inst/sec) elapsed = 0:0:01:31 / Wed Apr 17 12:26:16 2019
GPGPU-Sim PTX: 14100000 instructions simulated : ctaid=(9,0,0) tid=(159,0,0)
GPGPU-Sim PTX: 14200000 instructions simulated : ctaid=(7,0,0) tid=(31,0,0)
GPGPU-Sim uArch: cycles simulated: 85500  inst.: 14198112 (ipc=166.1) sim_rate=154327 (inst/sec) elapsed = 0:0:01:32 / Wed Apr 17 12:26:17 2019
GPGPU-Sim PTX: 14300000 instructions simulated : ctaid=(2,0,0) tid=(31,0,0)
GPGPU-Sim PTX: 14400000 instructions simulated : ctaid=(7,1,0) tid=(159,0,0)
GPGPU-Sim PTX: 14500000 instructions simulated : ctaid=(0,2,0) tid=(159,0,0)
GPGPU-Sim uArch: cycles simulated: 87000  inst.: 14459488 (ipc=166.2) sim_rate=155478 (inst/sec) elapsed = 0:0:01:33 / Wed Apr 17 12:26:18 2019
GPGPU-Sim PTX: 14600000 instructions simulated : ctaid=(3,2,0) tid=(223,0,0)
GPGPU-Sim PTX: 14700000 instructions simulated : ctaid=(6,0,0) tid=(159,0,0)
GPGPU-Sim uArch: cycles simulated: 88000  inst.: 14632000 (ipc=166.3) sim_rate=155659 (inst/sec) elapsed = 0:0:01:34 / Wed Apr 17 12:26:19 2019
GPGPU-Sim PTX: 14800000 instructions simulated : ctaid=(7,1,0) tid=(95,0,0)
GPGPU-Sim PTX: 14900000 instructions simulated : ctaid=(6,0,0) tid=(159,0,0)
GPGPU-Sim uArch: cycles simulated: 89500  inst.: 14890368 (ipc=166.4) sim_rate=156740 (inst/sec) elapsed = 0:0:01:35 / Wed Apr 17 12:26:20 2019
GPGPU-Sim PTX: 15000000 instructions simulated : ctaid=(0,1,0) tid=(159,0,0)
GPGPU-Sim PTX: 15100000 instructions simulated : ctaid=(2,0,0) tid=(127,0,0)
GPGPU-Sim PTX: 15200000 instructions simulated : ctaid=(8,1,0) tid=(223,0,0)
GPGPU-Sim uArch: cycles simulated: 91000  inst.: 15154048 (ipc=166.5) sim_rate=157854 (inst/sec) elapsed = 0:0:01:36 / Wed Apr 17 12:26:21 2019
GPGPU-Sim PTX: 15300000 instructions simulated : ctaid=(0,1,0) tid=(159,0,0)
GPGPU-Sim uArch: cycles simulated: 91500  inst.: 15244576 (ipc=166.6) sim_rate=157160 (inst/sec) elapsed = 0:0:01:37 / Wed Apr 17 12:26:22 2019
GPGPU-Sim PTX: 15400000 instructions simulated : ctaid=(5,1,0) tid=(95,0,0)
GPGPU-Sim PTX: 15500000 instructions simulated : ctaid=(10,0,0) tid=(31,0,0)
GPGPU-Sim uArch: cycles simulated: 92500  inst.: 15417856 (ipc=166.7) sim_rate=157325 (inst/sec) elapsed = 0:0:01:38 / Wed Apr 17 12:26:23 2019
GPGPU-Sim PTX: 15600000 instructions simulated : ctaid=(5,1,0) tid=(223,0,0)
GPGPU-Sim PTX: 15700000 instructions simulated : ctaid=(7,0,0) tid=(159,0,0)
GPGPU-Sim uArch: cycles simulated: 94000  inst.: 15673335 (ipc=166.7) sim_rate=158316 (inst/sec) elapsed = 0:0:01:39 / Wed Apr 17 12:26:24 2019
GPGPU-Sim PTX: 15800000 instructions simulated : ctaid=(2,1,0) tid=(177,0,0)
GPGPU-Sim PTX: 15900000 instructions simulated : ctaid=(0,0,0) tid=(35,0,0)
GPGPU-Sim uArch: cycles simulated: 95000  inst.: 15848030 (ipc=166.8) sim_rate=158480 (inst/sec) elapsed = 0:0:01:40 / Wed Apr 17 12:26:25 2019
GPGPU-Sim PTX: 16000000 instructions simulated : ctaid=(1,0,0) tid=(125,0,0)
GPGPU-Sim PTX: 16100000 instructions simulated : ctaid=(1,0,0) tid=(51,0,0)
GPGPU-Sim uArch: cycles simulated: 96500  inst.: 16104043 (ipc=166.9) sim_rate=159445 (inst/sec) elapsed = 0:0:01:41 / Wed Apr 17 12:26:26 2019
GPGPU-Sim PTX: 16200000 instructions simulated : ctaid=(10,0,0) tid=(91,0,0)
GPGPU-Sim PTX: 16300000 instructions simulated : ctaid=(3,1,0) tid=(57,0,0)
GPGPU-Sim uArch: cycles simulated: 97500  inst.: 16277422 (ipc=166.9) sim_rate=159582 (inst/sec) elapsed = 0:0:01:42 / Wed Apr 17 12:26:27 2019
GPGPU-Sim PTX: 16400000 instructions simulated : ctaid=(5,2,0) tid=(39,0,0)
GPGPU-Sim PTX: 16500000 instructions simulated : ctaid=(0,2,0) tid=(27,0,0)
GPGPU-Sim uArch: cycles simulated: 98500  inst.: 16449266 (ipc=167.0) sim_rate=159701 (inst/sec) elapsed = 0:0:01:43 / Wed Apr 17 12:26:28 2019
GPGPU-Sim PTX: 16600000 instructions simulated : ctaid=(0,1,0) tid=(121,0,0)
GPGPU-Sim PTX: 16700000 instructions simulated : ctaid=(7,2,0) tid=(75,0,0)
GPGPU-Sim PTX: 16800000 instructions simulated : ctaid=(5,1,0) tid=(157,0,0)
GPGPU-Sim uArch: cycles simulated: 100000  inst.: 16712449 (ipc=167.1) sim_rate=160696 (inst/sec) elapsed = 0:0:01:44 / Wed Apr 17 12:26:29 2019
GPGPU-Sim PTX: 16900000 instructions simulated : ctaid=(1,1,0) tid=(83,0,0)
GPGPU-Sim uArch: cycles simulated: 101000  inst.: 16885856 (ipc=167.2) sim_rate=160817 (inst/sec) elapsed = 0:0:01:45 / Wed Apr 17 12:26:30 2019
GPGPU-Sim PTX: 17000000 instructions simulated : ctaid=(0,2,0) tid=(159,0,0)
GPGPU-Sim PTX: 17100000 instructions simulated : ctaid=(4,2,0) tid=(155,0,0)
GPGPU-Sim uArch: cycles simulated: 102000  inst.: 17062289 (ipc=167.3) sim_rate=160964 (inst/sec) elapsed = 0:0:01:46 / Wed Apr 17 12:26:31 2019
GPGPU-Sim PTX: 17200000 instructions simulated : ctaid=(2,2,0) tid=(221,0,0)
GPGPU-Sim PTX: 17300000 instructions simulated : ctaid=(7,2,0) tid=(11,0,0)
GPGPU-Sim PTX: 17400000 instructions simulated : ctaid=(9,3,0) tid=(11,0,0)
GPGPU-Sim uArch: cycles simulated: 103500  inst.: 17325414 (ipc=167.4) sim_rate=161919 (inst/sec) elapsed = 0:0:01:47 / Wed Apr 17 12:26:32 2019
GPGPU-Sim PTX: 17500000 instructions simulated : ctaid=(3,0,0) tid=(193,0,0)
GPGPU-Sim uArch: cycles simulated: 104500  inst.: 17491766 (ipc=167.4) sim_rate=161960 (inst/sec) elapsed = 0:0:01:48 / Wed Apr 17 12:26:33 2019
GPGPU-Sim PTX: 17600000 instructions simulated : ctaid=(6,0,0) tid=(19,0,0)
GPGPU-Sim PTX: 17700000 instructions simulated : ctaid=(0,2,0) tid=(21,0,0)
GPGPU-Sim PTX: 17800000 instructions simulated : ctaid=(4,0,0) tid=(213,0,0)
GPGPU-Sim uArch: cycles simulated: 106000  inst.: 17749493 (ipc=167.4) sim_rate=162839 (inst/sec) elapsed = 0:0:01:49 / Wed Apr 17 12:26:34 2019
GPGPU-Sim PTX: 17900000 instructions simulated : ctaid=(7,1,0) tid=(209,0,0)
GPGPU-Sim PTX: 18000000 instructions simulated : ctaid=(6,1,0) tid=(159,0,0)
GPGPU-Sim uArch: cycles simulated: 107000  inst.: 17930000 (ipc=167.6) sim_rate=163000 (inst/sec) elapsed = 0:0:01:50 / Wed Apr 17 12:26:35 2019
GPGPU-Sim PTX: 18100000 instructions simulated : ctaid=(7,0,0) tid=(251,0,0)
GPGPU-Sim PTX: 18200000 instructions simulated : ctaid=(4,2,0) tid=(155,0,0)
GPGPU-Sim uArch: cycles simulated: 108000  inst.: 18104546 (ipc=167.6) sim_rate=163104 (inst/sec) elapsed = 0:0:01:51 / Wed Apr 17 12:26:36 2019
GPGPU-Sim PTX: 18300000 instructions simulated : ctaid=(6,1,0) tid=(81,0,0)
GPGPU-Sim uArch: cycles simulated: 109000  inst.: 18277960 (ipc=167.7) sim_rate=163196 (inst/sec) elapsed = 0:0:01:52 / Wed Apr 17 12:26:37 2019
GPGPU-Sim PTX: 18400000 instructions simulated : ctaid=(3,2,0) tid=(31,0,0)
GPGPU-Sim PTX: 18500000 instructions simulated : ctaid=(3,1,0) tid=(223,0,0)
GPGPU-Sim uArch: cycles simulated: 110000  inst.: 18459520 (ipc=167.8) sim_rate=163358 (inst/sec) elapsed = 0:0:01:53 / Wed Apr 17 12:26:38 2019
GPGPU-Sim PTX: 18600000 instructions simulated : ctaid=(1,0,0) tid=(31,0,0)
GPGPU-Sim uArch: cycles simulated: 110500  inst.: 18544256 (ipc=167.8) sim_rate=162668 (inst/sec) elapsed = 0:0:01:54 / Wed Apr 17 12:26:39 2019
GPGPU-Sim PTX: 18700000 instructions simulated : ctaid=(2,1,0) tid=(167,0,0)
GPGPU-Sim uArch: cycles simulated: 111000  inst.: 18628284 (ipc=167.8) sim_rate=161985 (inst/sec) elapsed = 0:0:01:55 / Wed Apr 17 12:26:40 2019
GPGPU-Sim PTX: 18800000 instructions simulated : ctaid=(4,0,0) tid=(103,0,0)
GPGPU-Sim uArch: cycles simulated: 111500  inst.: 18713820 (ipc=167.8) sim_rate=161326 (inst/sec) elapsed = 0:0:01:56 / Wed Apr 17 12:26:41 2019
GPGPU-Sim uArch: cycles simulated: 112000  inst.: 18802812 (ipc=167.9) sim_rate=160707 (inst/sec) elapsed = 0:0:01:57 / Wed Apr 17 12:26:42 2019
GPGPU-Sim PTX: 18900000 instructions simulated : ctaid=(7,0,0) tid=(7,0,0)
GPGPU-Sim PTX: 19000000 instructions simulated : ctaid=(6,2,0) tid=(27,0,0)
GPGPU-Sim PTX: 19100000 instructions simulated : ctaid=(0,2,0) tid=(155,0,0)
GPGPU-Sim uArch: cycles simulated: 113500  inst.: 19063378 (ipc=168.0) sim_rate=161554 (inst/sec) elapsed = 0:0:01:58 / Wed Apr 17 12:26:43 2019
GPGPU-Sim PTX: 19200000 instructions simulated : ctaid=(5,0,0) tid=(27,0,0)
GPGPU-Sim PTX: 19300000 instructions simulated : ctaid=(9,0,0) tid=(249,0,0)
GPGPU-Sim uArch: cycles simulated: 114500  inst.: 19241509 (ipc=168.0) sim_rate=161693 (inst/sec) elapsed = 0:0:01:59 / Wed Apr 17 12:26:44 2019
GPGPU-Sim PTX: 19400000 instructions simulated : ctaid=(1,0,0) tid=(185,0,0)
GPGPU-Sim uArch: cycles simulated: 115000  inst.: 19325219 (ipc=168.0) sim_rate=161043 (inst/sec) elapsed = 0:0:02:00 / Wed Apr 17 12:26:45 2019
GPGPU-Sim PTX: 19500000 instructions simulated : ctaid=(7,0,0) tid=(155,0,0)
GPGPU-Sim uArch: cycles simulated: 116000  inst.: 19500668 (ipc=168.1) sim_rate=161162 (inst/sec) elapsed = 0:0:02:01 / Wed Apr 17 12:26:46 2019
GPGPU-Sim PTX: 19600000 instructions simulated : ctaid=(2,1,0) tid=(103,0,0)
GPGPU-Sim PTX: 19700000 instructions simulated : ctaid=(0,1,0) tid=(39,0,0)
GPGPU-Sim uArch: cycles simulated: 117000  inst.: 19670068 (ipc=168.1) sim_rate=161230 (inst/sec) elapsed = 0:0:02:02 / Wed Apr 17 12:26:47 2019
GPGPU-Sim PTX: 19800000 instructions simulated : ctaid=(7,0,0) tid=(215,0,0)
GPGPU-Sim PTX: 19900000 instructions simulated : ctaid=(2,2,0) tid=(87,0,0)
GPGPU-Sim uArch: cycles simulated: 118000  inst.: 19843444 (ipc=168.2) sim_rate=161328 (inst/sec) elapsed = 0:0:02:03 / Wed Apr 17 12:26:48 2019
GPGPU-Sim PTX: 20000000 instructions simulated : ctaid=(4,0,0) tid=(199,0,0)
GPGPU-Sim PTX: 20100000 instructions simulated : ctaid=(5,2,0) tid=(135,0,0)
GPGPU-Sim uArch: cycles simulated: 119000  inst.: 20011020 (ipc=168.2) sim_rate=161379 (inst/sec) elapsed = 0:0:02:04 / Wed Apr 17 12:26:49 2019
GPGPU-Sim uArch: cycles simulated: 119500  inst.: 20097068 (ipc=168.2) sim_rate=160776 (inst/sec) elapsed = 0:0:02:05 / Wed Apr 17 12:26:50 2019
GPGPU-Sim PTX: 20200000 instructions simulated : ctaid=(0,1,0) tid=(103,0,0)
GPGPU-Sim PTX: 20300000 instructions simulated : ctaid=(2,1,0) tid=(167,0,0)
GPGPU-Sim PTX: 20400000 instructions simulated : ctaid=(4,0,0) tid=(13,0,0)
GPGPU-Sim uArch: cycles simulated: 121000  inst.: 20356313 (ipc=168.2) sim_rate=161558 (inst/sec) elapsed = 0:0:02:06 / Wed Apr 17 12:26:51 2019
GPGPU-Sim PTX: 20500000 instructions simulated : ctaid=(8,0,0) tid=(173,0,0)
GPGPU-Sim PTX: 20600000 instructions simulated : ctaid=(1,1,0) tid=(19,0,0)
GPGPU-Sim PTX: 20700000 instructions simulated : ctaid=(10,1,0) tid=(19,0,0)
GPGPU-Sim uArch: cycles simulated: 122500  inst.: 20611030 (ipc=168.3) sim_rate=162291 (inst/sec) elapsed = 0:0:02:07 / Wed Apr 17 12:26:52 2019
GPGPU-Sim PTX: 20800000 instructions simulated : ctaid=(1,0,0) tid=(133,0,0)
GPGPU-Sim uArch: cycles simulated: 123500  inst.: 20785581 (ipc=168.3) sim_rate=162387 (inst/sec) elapsed = 0:0:02:08 / Wed Apr 17 12:26:53 2019
GPGPU-Sim PTX: 20900000 instructions simulated : ctaid=(2,2,0) tid=(15,0,0)
GPGPU-Sim PTX: 21000000 instructions simulated : ctaid=(9,0,0) tid=(197,0,0)
GPGPU-Sim PTX: 21100000 instructions simulated : ctaid=(9,0,0) tid=(133,0,0)
GPGPU-Sim uArch: cycles simulated: 125000  inst.: 21042413 (ipc=168.3) sim_rate=163119 (inst/sec) elapsed = 0:0:02:09 / Wed Apr 17 12:26:54 2019
GPGPU-Sim PTX: 21200000 instructions simulated : ctaid=(3,2,0) tid=(45,0,0)
GPGPU-Sim PTX: 21300000 instructions simulated : ctaid=(4,0,0) tid=(13,0,0)
GPGPU-Sim uArch: cycles simulated: 126000  inst.: 21220293 (ipc=168.4) sim_rate=163233 (inst/sec) elapsed = 0:0:02:10 / Wed Apr 17 12:26:55 2019
GPGPU-Sim PTX: 21400000 instructions simulated : ctaid=(0,1,0) tid=(91,0,0)
GPGPU-Sim uArch: cycles simulated: 127000  inst.: 21399330 (ipc=168.5) sim_rate=163353 (inst/sec) elapsed = 0:0:02:11 / Wed Apr 17 12:26:56 2019
GPGPU-Sim PTX: 21500000 instructions simulated : ctaid=(7,0,0) tid=(187,0,0)
GPGPU-Sim PTX: 21600000 instructions simulated : ctaid=(9,0,0) tid=(223,0,0)
GPGPU-Sim PTX: 21700000 instructions simulated : ctaid=(2,0,0) tid=(81,0,0)
GPGPU-Sim uArch: cycles simulated: 128500  inst.: 21659431 (ipc=168.6) sim_rate=164086 (inst/sec) elapsed = 0:0:02:12 / Wed Apr 17 12:26:57 2019
GPGPU-Sim PTX: 21800000 instructions simulated : ctaid=(4,1,0) tid=(209,0,0)
GPGPU-Sim PTX: 21900000 instructions simulated : ctaid=(3,2,0) tid=(209,0,0)
GPGPU-Sim PTX: 22000000 instructions simulated : ctaid=(2,1,0) tid=(149,0,0)
GPGPU-Sim uArch: cycles simulated: 130000  inst.: 21913621 (ipc=168.6) sim_rate=164764 (inst/sec) elapsed = 0:0:02:13 / Wed Apr 17 12:26:58 2019
GPGPU-Sim PTX: 22100000 instructions simulated : ctaid=(10,1,0) tid=(1,0,0)
GPGPU-Sim uArch: cycles simulated: 130500  inst.: 22000943 (ipc=168.6) sim_rate=164186 (inst/sec) elapsed = 0:0:02:14 / Wed Apr 17 12:26:59 2019
GPGPU-Sim PTX: 22200000 instructions simulated : ctaid=(4,2,0) tid=(129,0,0)
GPGPU-Sim uArch: cycles simulated: 131500  inst.: 22176463 (ipc=168.6) sim_rate=164270 (inst/sec) elapsed = 0:0:02:15 / Wed Apr 17 12:27:00 2019
GPGPU-Sim PTX: 22300000 instructions simulated : ctaid=(3,2,0) tid=(129,0,0)
GPGPU-Sim PTX: 22400000 instructions simulated : ctaid=(10,2,0) tid=(31,0,0)
GPGPU-Sim PTX: 22500000 instructions simulated : ctaid=(4,0,0) tid=(223,0,0)
GPGPU-Sim uArch: cycles simulated: 133000  inst.: 22431248 (ipc=168.7) sim_rate=164935 (inst/sec) elapsed = 0:0:02:16 / Wed Apr 17 12:27:01 2019
GPGPU-Sim PTX: 22600000 instructions simulated : ctaid=(3,2,0) tid=(9,0,0)
GPGPU-Sim uArch: cycles simulated: 133500  inst.: 22523975 (ipc=168.7) sim_rate=164408 (inst/sec) elapsed = 0:0:02:17 / Wed Apr 17 12:27:02 2019
GPGPU-Sim PTX: 22700000 instructions simulated : ctaid=(5,0,0) tid=(15,0,0)
GPGPU-Sim uArch: cycles simulated: 134500  inst.: 22695000 (ipc=168.7) sim_rate=164456 (inst/sec) elapsed = 0:0:02:18 / Wed Apr 17 12:27:03 2019
GPGPU-Sim PTX: 22800000 instructions simulated : ctaid=(10,1,0) tid=(143,0,0)
GPGPU-Sim PTX: 22900000 instructions simulated : ctaid=(5,0,0) tid=(27,0,0)
GPGPU-Sim PTX: 23000000 instructions simulated : ctaid=(3,1,0) tid=(225,0,0)
GPGPU-Sim uArch: cycles simulated: 136000  inst.: 22954699 (ipc=168.8) sim_rate=165141 (inst/sec) elapsed = 0:0:02:19 / Wed Apr 17 12:27:04 2019
GPGPU-Sim PTX: 23100000 instructions simulated : ctaid=(0,1,0) tid=(49,0,0)
GPGPU-Sim PTX: 23200000 instructions simulated : ctaid=(1,1,0) tid=(181,0,0)
GPGPU-Sim uArch: cycles simulated: 137000  inst.: 23135941 (ipc=168.9) sim_rate=165256 (inst/sec) elapsed = 0:0:02:20 / Wed Apr 17 12:27:05 2019
GPGPU-Sim PTX: 23300000 instructions simulated : ctaid=(4,0,0) tid=(207,0,0)
GPGPU-Sim PTX: 23400000 instructions simulated : ctaid=(5,2,0) tid=(15,0,0)
GPGPU-Sim uArch: cycles simulated: 138500  inst.: 23393145 (ipc=168.9) sim_rate=165908 (inst/sec) elapsed = 0:0:02:21 / Wed Apr 17 12:27:06 2019
GPGPU-Sim PTX: 23500000 instructions simulated : ctaid=(3,1,0) tid=(13,0,0)
GPGPU-Sim PTX: 23600000 instructions simulated : ctaid=(8,0,0) tid=(77,0,0)
GPGPU-Sim uArch: cycles simulated: 139500  inst.: 23565881 (ipc=168.9) sim_rate=165956 (inst/sec) elapsed = 0:0:02:22 / Wed Apr 17 12:27:07 2019
GPGPU-Sim PTX: 23700000 instructions simulated : ctaid=(1,2,0) tid=(89,0,0)
GPGPU-Sim PTX: 23800000 instructions simulated : ctaid=(1,1,0) tid=(13,0,0)
GPGPU-Sim PTX: 23900000 instructions simulated : ctaid=(6,0,0) tid=(7,0,0)
GPGPU-Sim uArch: cycles simulated: 141000  inst.: 23828924 (ipc=169.0) sim_rate=166635 (inst/sec) elapsed = 0:0:02:23 / Wed Apr 17 12:27:08 2019
GPGPU-Sim PTX: 24000000 instructions simulated : ctaid=(6,0,0) tid=(15,0,0)
GPGPU-Sim PTX: 24100000 instructions simulated : ctaid=(5,2,0) tid=(65,0,0)
GPGPU-Sim uArch: cycles simulated: 142000  inst.: 23999487 (ipc=169.0) sim_rate=166663 (inst/sec) elapsed = 0:0:02:24 / Wed Apr 17 12:27:09 2019
GPGPU-Sim PTX: 24200000 instructions simulated : ctaid=(8,1,0) tid=(193,0,0)
GPGPU-Sim PTX: 24300000 instructions simulated : ctaid=(5,1,0) tid=(77,0,0)
GPGPU-Sim uArch: cycles simulated: 143500  inst.: 24251913 (ipc=169.0) sim_rate=167254 (inst/sec) elapsed = 0:0:02:25 / Wed Apr 17 12:27:10 2019
GPGPU-Sim PTX: 24400000 instructions simulated : ctaid=(9,0,0) tid=(7,0,0)
GPGPU-Sim uArch: cycles simulated: 144000  inst.: 24340909 (ipc=169.0) sim_rate=166718 (inst/sec) elapsed = 0:0:02:26 / Wed Apr 17 12:27:11 2019
GPGPU-Sim PTX: 24500000 instructions simulated : ctaid=(10,0,0) tid=(67,0,0)
GPGPU-Sim PTX: 24600000 instructions simulated : ctaid=(2,0,0) tid=(67,0,0)
GPGPU-Sim uArch: cycles simulated: 145000  inst.: 24515761 (ipc=169.1) sim_rate=166773 (inst/sec) elapsed = 0:0:02:27 / Wed Apr 17 12:27:12 2019
GPGPU-Sim PTX: 24700000 instructions simulated : ctaid=(6,2,0) tid=(213,0,0)
GPGPU-Sim uArch: cycles simulated: 146000  inst.: 24685520 (ipc=169.1) sim_rate=166794 (inst/sec) elapsed = 0:0:02:28 / Wed Apr 17 12:27:13 2019
GPGPU-Sim PTX: 24800000 instructions simulated : ctaid=(8,1,0) tid=(127,0,0)
GPGPU-Sim PTX: 24900000 instructions simulated : ctaid=(4,0,0) tid=(91,0,0)
GPGPU-Sim PTX: 25000000 instructions simulated : ctaid=(9,0,0) tid=(151,0,0)
GPGPU-Sim uArch: cycles simulated: 147500  inst.: 24948612 (ipc=169.1) sim_rate=167440 (inst/sec) elapsed = 0:0:02:29 / Wed Apr 17 12:27:14 2019
GPGPU-Sim PTX: 25100000 instructions simulated : ctaid=(4,1,0) tid=(23,0,0)
GPGPU-Sim PTX: 25200000 instructions simulated : ctaid=(4,0,0) tid=(151,0,0)
GPGPU-Sim PTX: 25300000 instructions simulated : ctaid=(0,0,0) tid=(137,0,0)
GPGPU-Sim uArch: cycles simulated: 149000  inst.: 25208699 (ipc=169.2) sim_rate=168057 (inst/sec) elapsed = 0:0:02:30 / Wed Apr 17 12:27:15 2019
GPGPU-Sim PTX: 25400000 instructions simulated : ctaid=(1,1,0) tid=(105,0,0)
GPGPU-Sim uArch: cycles simulated: 150000  inst.: 25384773 (ipc=169.2) sim_rate=168111 (inst/sec) elapsed = 0:0:02:31 / Wed Apr 17 12:27:16 2019
GPGPU-Sim PTX: 25500000 instructions simulated : ctaid=(10,1,0) tid=(117,0,0)
GPGPU-Sim PTX: 25600000 instructions simulated : ctaid=(2,2,0) tid=(21,0,0)
GPGPU-Sim uArch: cycles simulated: 151000  inst.: 25558757 (ipc=169.3) sim_rate=168149 (inst/sec) elapsed = 0:0:02:32 / Wed Apr 17 12:27:17 2019
GPGPU-Sim PTX: 25700000 instructions simulated : ctaid=(1,2,0) tid=(77,0,0)
GPGPU-Sim PTX: 25800000 instructions simulated : ctaid=(10,0,0) tid=(139,0,0)
GPGPU-Sim uArch: cycles simulated: 152000  inst.: 25731546 (ipc=169.3) sim_rate=168180 (inst/sec) elapsed = 0:0:02:33 / Wed Apr 17 12:27:18 2019
GPGPU-Sim PTX: 25900000 instructions simulated : ctaid=(1,1,0) tid=(7,0,0)
GPGPU-Sim PTX: 26000000 instructions simulated : ctaid=(8,0,0) tid=(39,0,0)
GPGPU-Sim uArch: cycles simulated: 153000  inst.: 25903932 (ipc=169.3) sim_rate=168207 (inst/sec) elapsed = 0:0:02:34 / Wed Apr 17 12:27:19 2019
GPGPU-Sim PTX: 26100000 instructions simulated : ctaid=(0,0,0) tid=(69,0,0)
GPGPU-Sim PTX: 26200000 instructions simulated : ctaid=(0,2,0) tid=(133,0,0)
GPGPU-Sim uArch: cycles simulated: 154500  inst.: 26161949 (ipc=169.3) sim_rate=168786 (inst/sec) elapsed = 0:0:02:35 / Wed Apr 17 12:27:20 2019
GPGPU-Sim PTX: 26300000 instructions simulated : ctaid=(2,1,0) tid=(133,0,0)
GPGPU-Sim uArch: cycles simulated: 155000  inst.: 26253408 (ipc=169.4) sim_rate=168291 (inst/sec) elapsed = 0:0:02:36 / Wed Apr 17 12:27:21 2019
GPGPU-Sim PTX: 26400000 instructions simulated : ctaid=(6,0,0) tid=(127,0,0)
GPGPU-Sim PTX: 26500000 instructions simulated : ctaid=(5,2,0) tid=(27,0,0)
GPGPU-Sim PTX: 26600000 instructions simulated : ctaid=(3,1,0) tid=(27,0,0)
GPGPU-Sim uArch: cycles simulated: 156500  inst.: 26509458 (ipc=169.4) sim_rate=168850 (inst/sec) elapsed = 0:0:02:37 / Wed Apr 17 12:27:22 2019
GPGPU-Sim PTX: 26700000 instructions simulated : ctaid=(1,0,0) tid=(91,0,0)
GPGPU-Sim uArch: cycles simulated: 157000  inst.: 26597298 (ipc=169.4) sim_rate=168337 (inst/sec) elapsed = 0:0:02:38 / Wed Apr 17 12:27:23 2019
GPGPU-Sim PTX: 26800000 instructions simulated : ctaid=(2,2,0) tid=(155,0,0)
GPGPU-Sim PTX: 26900000 instructions simulated : ctaid=(5,1,0) tid=(21,0,0)
GPGPU-Sim uArch: cycles simulated: 158500  inst.: 26857845 (ipc=169.5) sim_rate=168917 (inst/sec) elapsed = 0:0:02:39 / Wed Apr 17 12:27:24 2019
GPGPU-Sim PTX: 27000000 instructions simulated : ctaid=(5,0,0) tid=(213,0,0)
GPGPU-Sim PTX: 27100000 instructions simulated : ctaid=(5,0,0) tid=(113,0,0)
GPGPU-Sim uArch: cycles simulated: 159500  inst.: 27036311 (ipc=169.5) sim_rate=168976 (inst/sec) elapsed = 0:0:02:40 / Wed Apr 17 12:27:25 2019
GPGPU-Sim PTX: 27200000 instructions simulated : ctaid=(6,0,0) tid=(17,0,0)
GPGPU-Sim PTX: 27300000 instructions simulated : ctaid=(8,0,0) tid=(113,0,0)
GPGPU-Sim PTX: 27400000 instructions simulated : ctaid=(2,0,0) tid=(209,0,0)
GPGPU-Sim uArch: cycles simulated: 161000  inst.: 27296567 (ipc=169.5) sim_rate=169543 (inst/sec) elapsed = 0:0:02:41 / Wed Apr 17 12:27:26 2019
GPGPU-Sim PTX: 27500000 instructions simulated : ctaid=(2,1,0) tid=(169,0,0)
GPGPU-Sim PTX: 27600000 instructions simulated : ctaid=(5,1,0) tid=(201,0,0)
GPGPU-Sim uArch: cycles simulated: 162500  inst.: 27561435 (ipc=169.6) sim_rate=170132 (inst/sec) elapsed = 0:0:02:42 / Wed Apr 17 12:27:27 2019
GPGPU-Sim PTX: 27700000 instructions simulated : ctaid=(9,0,0) tid=(187,0,0)
GPGPU-Sim PTX: 27800000 instructions simulated : ctaid=(2,0,0) tid=(187,0,0)
GPGPU-Sim uArch: cycles simulated: 163500  inst.: 27730634 (ipc=169.6) sim_rate=170126 (inst/sec) elapsed = 0:0:02:43 / Wed Apr 17 12:27:28 2019
GPGPU-Sim PTX: 27900000 instructions simulated : ctaid=(10,0,0) tid=(107,0,0)
GPGPU-Sim PTX: 28000000 instructions simulated : ctaid=(5,0,0) tid=(201,0,0)
GPGPU-Sim uArch: cycles simulated: 165000  inst.: 27990251 (ipc=169.6) sim_rate=170672 (inst/sec) elapsed = 0:0:02:44 / Wed Apr 17 12:27:29 2019
GPGPU-Sim PTX: 28100000 instructions simulated : ctaid=(7,0,0) tid=(73,0,0)
GPGPU-Sim uArch: cycles simulated: 165500  inst.: 28080843 (ipc=169.7) sim_rate=170186 (inst/sec) elapsed = 0:0:02:45 / Wed Apr 17 12:27:30 2019
GPGPU-Sim PTX: 28200000 instructions simulated : ctaid=(6,0,0) tid=(137,0,0)
GPGPU-Sim PTX: 28300000 instructions simulated : ctaid=(8,0,0) tid=(147,0,0)
GPGPU-Sim PTX: 28400000 instructions simulated : ctaid=(4,0,0) tid=(87,0,0)
GPGPU-Sim uArch: cycles simulated: 167000  inst.: 28342212 (ipc=169.7) sim_rate=170736 (inst/sec) elapsed = 0:0:02:46 / Wed Apr 17 12:27:31 2019
GPGPU-Sim PTX: 28500000 instructions simulated : ctaid=(0,4,0) tid=(31,0,0)
GPGPU-Sim PTX: 28600000 instructions simulated : ctaid=(10,0,0) tid=(193,0,0)
GPGPU-Sim uArch: cycles simulated: 168000  inst.: 28511407 (ipc=169.7) sim_rate=170726 (inst/sec) elapsed = 0:0:02:47 / Wed Apr 17 12:27:32 2019
GPGPU-Sim PTX: 28700000 instructions simulated : ctaid=(6,0,0) tid=(33,0,0)
GPGPU-Sim uArch: cycles simulated: 169000  inst.: 28665967 (ipc=169.6) sim_rate=170630 (inst/sec) elapsed = 0:0:02:48 / Wed Apr 17 12:27:33 2019
GPGPU-Sim PTX: 28800000 instructions simulated : ctaid=(10,0,0) tid=(225,0,0)
GPGPU-Sim PTX: 28900000 instructions simulated : ctaid=(3,0,0) tid=(61,0,0)
GPGPU-Sim uArch: cycles simulated: 170000  inst.: 28845474 (ipc=169.7) sim_rate=170683 (inst/sec) elapsed = 0:0:02:49 / Wed Apr 17 12:27:34 2019
GPGPU-Sim PTX: 29000000 instructions simulated : ctaid=(8,0,0) tid=(39,0,0)
GPGPU-Sim PTX: 29100000 instructions simulated : ctaid=(1,2,0) tid=(135,0,0)
GPGPU-Sim uArch: cycles simulated: 171000  inst.: 29023372 (ipc=169.7) sim_rate=170725 (inst/sec) elapsed = 0:0:02:50 / Wed Apr 17 12:27:35 2019
GPGPU-Sim PTX: 29200000 instructions simulated : ctaid=(6,0,0) tid=(29,0,0)
GPGPU-Sim PTX: 29300000 instructions simulated : ctaid=(4,0,0) tid=(117,0,0)
GPGPU-Sim uArch: cycles simulated: 172000  inst.: 29194869 (ipc=169.7) sim_rate=170730 (inst/sec) elapsed = 0:0:02:51 / Wed Apr 17 12:27:36 2019
GPGPU-Sim PTX: 29400000 instructions simulated : ctaid=(2,0,0) tid=(21,0,0)
GPGPU-Sim uArch: cycles simulated: 173000  inst.: 29371238 (ipc=169.8) sim_rate=170763 (inst/sec) elapsed = 0:0:02:52 / Wed Apr 17 12:27:37 2019
GPGPU-Sim PTX: 29500000 instructions simulated : ctaid=(8,0,0) tid=(147,0,0)
GPGPU-Sim PTX: 29600000 instructions simulated : ctaid=(6,2,0) tid=(19,0,0)
GPGPU-Sim uArch: cycles simulated: 174000  inst.: 29546561 (ipc=169.8) sim_rate=170789 (inst/sec) elapsed = 0:0:02:53 / Wed Apr 17 12:27:38 2019
GPGPU-Sim PTX: 29700000 instructions simulated : ctaid=(3,2,0) tid=(93,0,0)
GPGPU-Sim PTX: 29800000 instructions simulated : ctaid=(4,0,0) tid=(27,0,0)
GPGPU-Sim uArch: cycles simulated: 175000  inst.: 29716322 (ipc=169.8) sim_rate=170783 (inst/sec) elapsed = 0:0:02:54 / Wed Apr 17 12:27:39 2019
GPGPU-Sim PTX: 29900000 instructions simulated : ctaid=(2,2,0) tid=(219,0,0)
GPGPU-Sim PTX: 30000000 instructions simulated : ctaid=(0,2,0) tid=(129,0,0)
GPGPU-Sim uArch: cycles simulated: 176000  inst.: 29890367 (ipc=169.8) sim_rate=170802 (inst/sec) elapsed = 0:0:02:55 / Wed Apr 17 12:27:40 2019
GPGPU-Sim PTX: 30100000 instructions simulated : ctaid=(2,2,0) tid=(65,0,0)
GPGPU-Sim uArch: cycles simulated: 177000  inst.: 30057887 (ipc=169.8) sim_rate=170783 (inst/sec) elapsed = 0:0:02:56 / Wed Apr 17 12:27:41 2019
GPGPU-Sim PTX: 30200000 instructions simulated : ctaid=(3,1,0) tid=(1,0,0)
GPGPU-Sim PTX: 30300000 instructions simulated : ctaid=(10,1,0) tid=(1,0,0)
GPGPU-Sim uArch: cycles simulated: 178000  inst.: 30229695 (ipc=169.8) sim_rate=170789 (inst/sec) elapsed = 0:0:02:57 / Wed Apr 17 12:27:42 2019
GPGPU-Sim PTX: 30400000 instructions simulated : ctaid=(5,1,0) tid=(91,0,0)
GPGPU-Sim PTX: 30500000 instructions simulated : ctaid=(0,0,0) tid=(251,0,0)
GPGPU-Sim uArch: cycles simulated: 179000  inst.: 30407426 (ipc=169.9) sim_rate=170828 (inst/sec) elapsed = 0:0:02:58 / Wed Apr 17 12:27:43 2019
GPGPU-Sim PTX: 30600000 instructions simulated : ctaid=(1,2,0) tid=(185,0,0)
GPGPU-Sim uArch: cycles simulated: 180000  inst.: 30581955 (ipc=169.9) sim_rate=170848 (inst/sec) elapsed = 0:0:02:59 / Wed Apr 17 12:27:44 2019
GPGPU-Sim PTX: 30700000 instructions simulated : ctaid=(5,0,0) tid=(25,0,0)
GPGPU-Sim PTX: 30800000 instructions simulated : ctaid=(7,0,0) tid=(185,0,0)
GPGPU-Sim PTX: 30900000 instructions simulated : ctaid=(5,0,0) tid=(57,0,0)
GPGPU-Sim uArch: cycles simulated: 181500  inst.: 30829987 (ipc=169.9) sim_rate=171277 (inst/sec) elapsed = 0:0:03:00 / Wed Apr 17 12:27:45 2019
GPGPU-Sim PTX: 31000000 instructions simulated : ctaid=(2,0,0) tid=(209,0,0)
GPGPU-Sim uArch: cycles simulated: 182000  inst.: 30916295 (ipc=169.9) sim_rate=170808 (inst/sec) elapsed = 0:0:03:01 / Wed Apr 17 12:27:46 2019
GPGPU-Sim PTX: 31100000 instructions simulated : ctaid=(2,0,0) tid=(3,0,0)
GPGPU-Sim uArch: cycles simulated: 183000  inst.: 31085334 (ipc=169.9) sim_rate=170798 (inst/sec) elapsed = 0:0:03:02 / Wed Apr 17 12:27:47 2019
GPGPU-Sim PTX: 31200000 instructions simulated : ctaid=(4,0,0) tid=(211,0,0)
GPGPU-Sim uArch: cycles simulated: 183500  inst.: 31178601 (ipc=169.9) sim_rate=170374 (inst/sec) elapsed = 0:0:03:03 / Wed Apr 17 12:27:48 2019
GPGPU-Sim PTX: 31300000 instructions simulated : ctaid=(5,1,0) tid=(45,0,0)
GPGPU-Sim PTX: 31400000 instructions simulated : ctaid=(0,0,0) tid=(47,0,0)
GPGPU-Sim uArch: cycles simulated: 184500  inst.: 31350318 (ipc=169.9) sim_rate=170382 (inst/sec) elapsed = 0:0:03:04 / Wed Apr 17 12:27:49 2019
[...]
dram[4]:  1.067891  1.069835  1.063194  1.061950  1.061489  1.061469  1.066023  1.063853  1.058443  1.059833  1.057653  1.059273  1.064237  1.066719  1.067102  1.065309 
dram[5]:  1.075043  1.082284  1.063184  1.070591  1.070247  1.069544  1.073678  1.073279  1.065343  1.063040  1.062672  1.065382  1.069405  1.070552  1.071994  1.071507 
average row locality = 1304757/1221996 = 1.067726
number of total memory accesses made:
dram[0]:         0         0         0         0         0         0         0         0         0         0         0         0         0         0         0         0 
dram[1]:         0         0         0         0         0         0         0         0         0         0         0         0         0         0         0         0 
dram[2]:         0         0         0         0         0         0         0         0         0         0         0         0         0         0         0         0 
dram[3]:         0         0         0         0         0         0         0         0         0         0         0         0         0         0         0         0 
dram[4]:         0         0         0         0         0         0         0         0         0         0         0         0         0         0         0         0 
dram[5]:         0         0         0         0         0         0         0         0         0         0         0         0         0         0         0         0 
total accesses: 0
min_bank_accesses = 0!
min_chip_accesses = 0!
number of total read accesses:
dram[0]:     13492     13466     13431     13480     13592     13574     13797     13788     13529     13629     13423     13434     13488     13537     13479     13528 
dram[1]:     13511     13517     13483     13503     13623     13636     13820     13826     13596     13618     13458     13472     13521     13512     13575     13534 
dram[2]:     13456     13494     13462     13518     13594     13598     13783     13728     13565     13529     13414     13403     13487     13523     13481     13487 
dram[3]:     13519     13586     13523     13552     13670     13681     13851     13837     13652     13630     13479     13493     13572     13597     13604     13581 
dram[4]:     13479     13509     13493     13525     13586     13642     13805     13762     13583     13586     13447     13457     13499     13534     13501     13540 
dram[5]:     13531     13602     13512     13422     13651     13703     13873     13841     13679     13659     13497     13492     13570     13587     13605     13572 
total reads: 1302965
bank skew: 13873/13403 = 1.04
chip skew: 217827/216522 = 1.01
number of total write accesses:
dram[0]:        64        64         0         0         0         0         0         0         0         0         0         0        20        20        64        64 
dram[1]:        64        64         0         0         0         0         0         0         0         0         0         0        20        20        64        64 
dram[2]:        64        64         0         0         0         0         0         0         0         0         0         0        20        24        64        64 
dram[3]:        64        64         0         0         0         0         0         0         0         0         0         0        20        24        64        64 
dram[4]:        64        64         0         0         0         0         0         0         0         0         0         0        20        24        64        64 
dram[5]:        64        64         0         0         0         0         0         0         0         0         0         0        20        24        64        64 
total reads: 1792
min_bank_accesses = 0!
chip skew: 300/296 = 1.01
average mf latency per bank:
dram[0]:        296       294       302       306       297       296       297       297       296       295       297       295       296       297       296       295
dram[1]:        293       291       301       303       294       294       295       293       293       292       294       292       294       293       293       292
dram[2]:        292       293       303       304       295       294       295       295       294       294       294       295       294       293       293       293
dram[3]:        293       294       305       307       294       295       296       296       295       295       295       296       295       295       295       295
dram[4]:        293       293       303       305       294       294       295       295       294       293       293       293       293       294       292       293
dram[5]:        291       290       303       293       293       292       293       293       292       291       293       292       293       292       292       291
maximum mf latency per bank:
dram[0]:        940       875       917       825       875       828       923       783       975       933       947       891       929       963       987       837
dram[1]:        722       567       686       543       677       560       819       630       847       589       707       659       808       630       822       716
dram[2]:        759       820       842       806       887       830       895       776       791       785       796       865       961       924       876       842
dram[3]:        590       545       524       641       613       610       641       706       686       690       547       640       605       646       640       571
dram[4]:        687       562       605       564       746       624       717       586       724       792       731       620       734       596       724       620
dram[5]:        579       497       506       521       596       521       613       570       566       582       498       529       519       572       570       523

Number of Memory Banks Accessed per Memory Operation per Warp (from 0):
0	0	0	0	0	0	0	0	0	0	0	0	0	0	0	0	0	0	0	0	0	0	0	0	0	0	0	0	0	0	0	0	0	0	0	0	0	0	0	0	0	0	0	0	0	0	0	0	0	0	0	0	0	0	0	0	0	0	0	0	0	0	0	0	0	0	0	0	0	0	0	0	0	0	0	0	0	0	0	0	0	0	0	0	0	0	0	0	0	0	0	0	0	0	0	0	
Average # of Memory Banks Accessed per Memory Operation per Warp=-nan

position of mrq chosen
0	0	0	0	0	0	0	0	0	0	0	0	0	0	0	0	

average position of mrq chosen = -nan
Memory Partition 0: 
Cache L2_bank_000:
MSHR contents

Cache L2_bank_001:
MSHR contents

In Dram Latency Queue (total = 0): 
DRAM[0]: 16 bks, busW=4 BL=8 CL=12, tRRD=2 tCCD=6, tRCD=12 tRAS=28 tRP=12 tRC=40
n_cmd=3954931 n_nop=3115375 n_act=202823 n_pre=202807 n_req=216963 n_rd=433334 n_write=592 bw_util=0.2194
n_activity=3567490 dram_eff=0.2433
bk0: 26984a 3542895i bk1: 26932a 3543432i bk2: 26862a 3546926i bk3: 26960a 3540747i bk4: 27184a 3540809i bk5: 27148a 3539456i bk6: 27594a 3533368i bk7: 27576a 3530999i bk8: 27058a 3540718i bk9: 27258a 3536494i bk10: 26846a 3543822i bk11: 26868a 3542117i bk12: 26976a 3541197i bk13: 27074a 3539099i bk14: 26958a 3539014i bk15: 27056a 3535929i 
dram_util_bins: 0 0 0 0 0 0 0 0 0 0
dram_eff_bins: 0 0 0 0 0 0 0 0 0 0
mrqq: max=16 avg=0.139213
Memory Partition 1: 
Cache L2_bank_002:
MSHR contents

Cache L2_bank_003:
MSHR contents

In Dram Latency Queue (total = 0): 
DRAM[1]: 16 bks, busW=4 BL=8 CL=12, tRRD=2 tCCD=6, tRCD=12 tRAS=28 tRP=12 tRC=40
n_cmd=3954931 n_nop=3112219 n_act=203863 n_pre=203847 n_req=217501 n_rd=434410 n_write=592 bw_util=0.22
n_activity=3571070 dram_eff=0.2436
bk0: 27022a 3541055i bk1: 27034a 3543100i bk2: 26966a 3541263i bk3: 27006a 3541638i bk4: 27246a 3539006i bk5: 27272a 3537675i bk6: 27640a 3531559i bk7: 27652a 3530824i bk8: 27192a 3539176i bk9: 27236a 3538315i bk10: 26916a 3540244i bk11: 26944a 3540217i bk12: 27042a 3540697i bk13: 27024a 3539018i bk14: 27150a 3536587i bk15: 27068a 3536328i 
dram_util_bins: 0 0 0 0 0 0 0 0 0 0
dram_eff_bins: 0 0 0 0 0 0 0 0 0 0
mrqq: max=16 avg=0.129112
Memory Partition 2: 
Cache L2_bank_004:
MSHR contents

Cache L2_bank_005:
MSHR contents

In Dram Latency Queue (total = 0): 
DRAM[2]: 16 bks, busW=4 BL=8 CL=12, tRRD=2 tCCD=6, tRCD=12 tRAS=28 tRP=12 tRC=40
n_cmd=3954931 n_nop=3113921 n_act=203691 n_pre=203675 n_req=216822 n_rd=433044 n_write=600 bw_util=0.2193
n_activity=3548162 dram_eff=0.2444
bk0: 26912a 3541119i bk1: 26988a 3540896i bk2: 26924a 3541301i bk3: 27036a 3539079i bk4: 27188a 3537253i bk5: 27196a 3537041i bk6: 27566a 3528814i bk7: 27456a 3529177i bk8: 27130a 3536854i bk9: 27058a 3537787i bk10: 26828a 3540027i bk11: 26806a 3540179i bk12: 26974a 3539183i bk13: 27046a 3538016i bk14: 26962a 3536500i bk15: 26974a 3536034i 
dram_util_bins: 0 0 0 0 0 0 0 0 0 0
dram_eff_bins: 0 0 0 0 0 0 0 0 0 0
mrqq: max=16 avg=0.142946
Memory Partition 3: 
Cache L2_bank_006:
MSHR contents
MSHR: tag=0x81e4ab80, atomic=0 1 entries : 0x7fa6b92c1950 :  mf: uid=50394115, sid10:w15, part=3, addr=0x81e4ab80, load , size=128, unknown  status = IN_PARTITION_DRAM (2996158), 

Cache L2_bank_007:
MSHR contents

In Dram Latency Queue (total = 0): 
DRAM[3]: 16 bks, busW=4 BL=8 CL=12, tRRD=2 tCCD=6, tRCD=12 tRAS=28 tRP=12 tRC=40
n_cmd=3954931 n_nop=3111761 n_act=203466 n_pre=203450 n_req=218127 n_rd=435654 n_write=600 bw_util=0.2206
n_activity=3545919 dram_eff=0.2461
bk0: 27038a 3543092i bk1: 27172a 3538943i bk2: 27046a 3542583i bk3: 27104a 3541410i bk4: 27340a 3538175i bk5: 27362a 3535658i bk6: 27702a 3532246i bk7: 27674a 3528282i bk8: 27304a 3536448i bk9: 27260a 3536984i bk10: 26958a 3541478i bk11: 26986a 3541279i bk12: 27144a 3540774i bk13: 27194a 3537575i bk14: 27208a 3536413i bk15: 27162a 3534834i 
dram_util_bins: 0 0 0 0 0 0 0 0 0 0
dram_eff_bins: 0 0 0 0 0 0 0 0 0 0
mrqq: max=16 avg=0.132891
Memory Partition 4: 
Cache L2_bank_008:
MSHR contents

Cache L2_bank_009:
MSHR contents

In Dram Latency Queue (total = 0): 
DRAM[4]: 16 bks, busW=4 BL=8 CL=12, tRRD=2 tCCD=6, tRCD=12 tRAS=28 tRP=12 tRC=40
n_cmd=3954931 n_nop=3111855 n_act=204298 n_pre=204282 n_req=217248 n_rd=433896 n_write=600 bw_util=0.2197
n_activity=3544710 dram_eff=0.2452
bk0: 26958a 3540275i bk1: 27018a 3539086i bk2: 26986a 3541454i bk3: 27050a 3538968i bk4: 27172a 3537633i bk5: 27284a 3534478i bk6: 27610a 3530662i bk7: 27524a 3527104i bk8: 27166a 3536170i bk9: 27172a 3536765i bk10: 26894a 3538733i bk11: 26914a 3538629i bk12: 26998a 3539162i bk13: 27068a 3537056i bk14: 27002a 3536964i bk15: 27080a 3533342i 
dram_util_bins: 0 0 0 0 0 0 0 0 0 0
dram_eff_bins: 0 0 0 0 0 0 0 0 0 0
mrqq: max=16 avg=0.132471
Memory Partition 5: 
Cache L2_bank_010:
MSHR contents

Cache L2_bank_011:
MSHR contents

In Dram Latency Queue (total = 0): 
DRAM[5]: 16 bks, busW=4 BL=8 CL=12, tRRD=2 tCCD=6, tRCD=12 tRAS=28 tRP=12 tRC=40
n_cmd=3954931 n_nop=3111043 n_act=203856 n_pre=203840 n_req=218096 n_rd=435592 n_write=600 bw_util=0.2206
n_activity=3568954 dram_eff=0.2444
bk0: 27062a 3541649i bk1: 27204a 3541507i bk2: 27024a 3540930i bk3: 26844a 3545649i bk4: 27302a 3539129i bk5: 27406a 3536658i bk6: 27746a 3531536i bk7: 27682a 3531319i bk8: 27358a 3537219i bk9: 27318a 3537113i bk10: 26994a 3540677i bk11: 26984a 3541803i bk12: 27140a 3540374i bk13: 27174a 3538501i bk14: 27210a 3536013i bk15: 27144a 3535839i 
dram_util_bins: 0 0 0 0 0 0 0 0 0 0
dram_eff_bins: 0 0 0 0 0 0 0 0 0 0
mrqq: max=16 avg=0.124053

========= L2 cache stats =========
L2_cache_bank[0]: Access = 111105, Miss = 108231, Miss_rate = 0.974, Pending_hits = 8, Reservation_fails = 2068
L2_cache_bank[1]: Access = 111818, Miss = 108436, Miss_rate = 0.970, Pending_hits = 11, Reservation_fails = 1685
L2_cache_bank[2]: Access = 111751, Miss = 108587, Miss_rate = 0.972, Pending_hits = 14, Reservation_fails = 573
L2_cache_bank[3]: Access = 111957, Miss = 108618, Miss_rate = 0.970, Pending_hits = 13, Reservation_fails = 28
L2_cache_bank[4]: Access = 111662, Miss = 108242, Miss_rate = 0.969, Pending_hits = 10, Reservation_fails = 1970
L2_cache_bank[5]: Access = 111907, Miss = 108280, Miss_rate = 0.968, Pending_hits = 6, Reservation_fails = 1899
L2_cache_bank[6]: Access = 112318, Miss = 108870, Miss_rate = 0.969, Pending_hits = 3, Reservation_fails = 57
L2_cache_bank[7]: Access = 112600, Miss = 108957, Miss_rate = 0.968, Pending_hits = 9, Reservation_fails = 36
L2_cache_bank[8]: Access = 111927, Miss = 108393, Miss_rate = 0.968, Pending_hits = 6, Reservation_fails = 336
L2_cache_bank[9]: Access = 112278, Miss = 108555, Miss_rate = 0.967, Pending_hits = 12, Reservation_fails = 187
L2_cache_bank[10]: Access = 112344, Miss = 108918, Miss_rate = 0.970, Pending_hits = 5, Reservation_fails = 42
L2_cache_bank[11]: Access = 111462, Miss = 108878, Miss_rate = 0.977, Pending_hits = 0, Reservation_fails = 46
L2_total_cache_accesses = 1343129
L2_total_cache_misses = 1302965
L2_total_cache_miss_rate = 0.9701
L2_total_cache_pending_hits = 97
L2_total_cache_reservation_fails = 8927
L2_total_cache_breakdown:
	L2_cache_stats_breakdown[GLOBAL_ACC_R][HIT] = 39996
	L2_cache_stats_breakdown[GLOBAL_ACC_R][HIT_RESERVED] = 84
	L2_cache_stats_breakdown[GLOBAL_ACC_R][MISS] = 1301167
	L2_cache_stats_breakdown[GLOBAL_ACC_R][RESERVATION_FAIL] = 8513
	L2_cache_stats_breakdown[CONST_ACC_R][HIT] = 11
	L2_cache_stats_breakdown[CONST_ACC_R][HIT_RESERVED] = 3
	L2_cache_stats_breakdown[CONST_ACC_R][MISS] = 1
	L2_cache_stats_breakdown[CONST_ACC_R][RESERVATION_FAIL] = 95
	L2_cache_stats_breakdown[GLOBAL_ACC_W][MISS] = 1792
	L2_cache_stats_breakdown[INST_ACC_R][HIT] = 60
	L2_cache_stats_breakdown[INST_ACC_R][HIT_RESERVED] = 10
	L2_cache_stats_breakdown[INST_ACC_R][MISS] = 5
	L2_cache_stats_breakdown[INST_ACC_R][RESERVATION_FAIL] = 319
L2_cache_data_port_util = 0.004
L2_cache_fill_port_util = 0.145

icnt_total_pkts_mem_to_simt=6708447
icnt_total_pkts_simt_to_mem=1350297
LD_mem_lat_dist  0 0 0 0 0 0 0 0 0 0 0 0 0 0 0 0 0 0 0 0 0 0 0 0 0 0 0
ST_mem_lat_dist  0 0 0 0 0 0 0 0 0 0 0 0 0 0 0 0 0 0 0 0 0 0 0 0 0 0 0
----------------------------Interconnect-DETAILS--------------------------------
Class 0:
Packet latency average = 11.4081
	minimum = 6
	maximum = 336
Network latency average = 10.5218
	minimum = 6
	maximum = 336
Slowest packet = 1364674
Flit latency average = 9.2746
	minimum = 6
	maximum = 336
Slowest flit = 4093088
Fragmentation average = 0
	minimum = 0
	maximum = 0
Injected packet rate average = 0.0329018
	minimum = 0.0274448 (at node 2)
	maximum = 0.0372097 (at node 22)
Accepted packet rate average = 0.0329018
	minimum = 0.0274448 (at node 2)
	maximum = 0.0372097 (at node 22)
Injected flit rate average = 0.0987053
	minimum = 0.0275947 (at node 2)
	maximum = 0.185845 (at node 22)
Accepted flit rate average= 0.0987053
	minimum = 0.0369306 (at node 15)
	maximum = 0.161714 (at node 10)
Injected packet length average = 3
Accepted packet length average = 3
Total in-flight flits = 0 (0 measured)
====== Overall Traffic Statistics ======
====== Traffic class 0 ======
Packet latency average = 11.6437 (2 samples)
	minimum = 6 (2 samples)
	maximum = 320.5 (2 samples)
Network latency average = 10.6946 (2 samples)
	minimum = 6 (2 samples)
	maximum = 320.5 (2 samples)
Flit latency average = 9.49495 (2 samples)
	minimum = 6 (2 samples)
	maximum = 320.5 (2 samples)
Fragmentation average = 0 (2 samples)
	minimum = 0 (2 samples)
	maximum = 0 (2 samples)
Injected packet rate average = 0.0332053 (2 samples)
	minimum = 0.027538 (2 samples)
	maximum = 0.0375804 (2 samples)
Accepted packet rate average = 0.0332053 (2 samples)
	minimum = 0.027538 (2 samples)
	maximum = 0.0375804 (2 samples)
Injected flit rate average = 0.0996157 (2 samples)
	minimum = 0.0276875 (2 samples)
	maximum = 0.187699 (2 samples)
Accepted flit rate average = 0.0996157 (2 samples)
	minimum = 0.0372791 (2 samples)
	maximum = 0.162341 (2 samples)
Injected packet size average = 2.99999 (2 samples)
Accepted packet size average = 2.99999 (2 samples)
Hops average = 1 (2 samples)
----------------------------END-of-Interconnect-DETAILS-------------------------


gpgpu_simulation_time = 0 days, 0 hrs, 45 min, 53 sec (2753 sec)
gpgpu_simulation_rate = 175040 (inst/sec)
gpgpu_simulation_rate = 1088 (cycle/sec)
GPGPU-Sim: synchronize waiting for inactive GPU simulation
GPGPU-Sim API: Stream Manager State
GPGPU-Sim: detected inactive GPU simulation thread
iterated 2 times

================= Centroid Coordinates =================
0: 1.23 613.61 527.61 0.00 0.00 0.01 0.00 0.00 0.00 0.00 0.03 0.01 0.00 0.00 0.00 8.15 11.06 0.00 0.00 0.00 0.00 0.99 0.01 0.22 139.44 193.37 0.83 0.02 0.06 0.01 0.00 0.00 0.00 0.00 1.00 1.23 613.61 527.61 0.00 0.00 0.01 0.00 0.00 0.00 0.00 0.03 0.01 0.00 0.00 0.00 8.15 11.06 0.00 0.00 0.00 0.00 0.99 0.01 0.22 139.44 193.37 0.83 0.02 0.06 0.01 0.00 0.00 0.00 0.00 1.23 613.61 527.61 0.00 0.00 0.01 0.00 0.00 0.00 0.00 0.03 0.01 0.00 0.00 0.00 8.15 11.06 0.00 0.00 0.00 0.00 0.99 0.01 0.22 139.44 193.37 0.83 0.02 0.06 0.01 0.00 0.00 0.00 0.00 1.00 1.23 613.61 527.61 0.00 0.00 0.01 0.00 0.00 0.00 0.00 0.03 0.01 0.00 0.00 0.00 8.15 11.06 0.00 0.00 0.00 0.00 0.99 0.01 0.22 139.44 193.37 0.83 0.02 0.06 0.01 0.00 0.00 0.00 0.00

1: 1.45 15177.44 214.67 0.00 0.00 0.01 0.00 0.00 0.00 0.00 0.00 0.02 0.01 0.02 0.00 4.59 5.07 0.00 0.01 0.00 0.00 0.98 0.03 0.25 129.85 98.10 0.52 0.05 0.20 0.01 0.00 0.00 0.00 0.00 1.00 1.45 15177.44 214.67 0.00 0.00 0.01 0.00 0.00 0.00 0.00 0.00 0.02 0.01 0.02 0.00 4.59 5.07 0.00 0.01 0.00 0.00 0.98 0.03 0.25 129.85 98.10 0.52 0.05 0.20 0.01 0.00 0.00 0.00 0.00 1.45 15177.44 214.67 0.00 0.00 0.01 0.00 0.00 0.00 0.00 0.00 0.02 0.01 0.02 0.00 4.59 5.07 0.00 0.01 0.00 0.00 0.98 0.03 0.25 129.85 98.10 0.52 0.05 0.20 0.01 0.00 0.00 0.00 0.00 1.00 1.45 15177.44 214.67 0.00 0.00 0.01 0.00 0.00 0.00 0.00 0.00 0.02 0.01 0.02 0.00 4.59 5.07 0.00 0.01 0.00 0.00 0.98 0.03 0.25 129.85 98.10 0.52 0.05 0.20 0.01 0.00 0.00 0.00 0.00

2: 3.74 600.16 40.36 0.01 0.00 0.00 0.00 0.00 0.00 0.00 0.00 0.00 0.00 0.00 0.00 338.62 287.90 0.24 0.24 0.03 0.03 0.75 0.04 0.03 240.64 180.98 0.72 0.05 0.58 0.00 0.24 0.24 0.03 0.03 1.00 3.74 600.16 40.36 0.01 0.00 0.00 0.00 0.00 0.00 0.00 0.00 0.00 0.00 0.00 0.00 338.62 287.90 0.24 0.24 0.03 0.03 0.75 0.04 0.03 240.64 180.98 0.72 0.05 0.58 0.00 0.24 0.24 0.03 0.03 3.74 600.16 40.36 0.01 0.00 0.00 0.00 0.00 0.00 0.00 0.00 0.00 0.00 0.00 0.00 338.62 287.90 0.24 0.24 0.03 0.03 0.75 0.04 0.03 240.64 180.98 0.72 0.05 0.58 0.00 0.24 0.24 0.03 0.03 1.00 3.74 600.16 40.36 0.01 0.00 0.00 0.00 0.00 0.00 0.00 0.00 0.00 0.00 0.00 0.00 338.62 287.90 0.24 0.24 0.03 0.03 0.75 0.04 0.03 240.64 180.98 0.72 0.05 0.58 0.00 0.24 0.24 0.03 0.03

3: 21.48 303.12 20528.08 0.00 0.00 0.03 0.00 0.16 0.00 0.00 0.17 0.01 0.00 0.00 0.00 7.59 11.10 0.00 0.01 0.00 0.00 1.00 0.00 0.13 130.51 246.12 0.99 0.00 0.06 0.02 0.00 0.00 0.00 0.00 1.00 21.48 303.12 20528.08 0.00 0.00 0.03 0.00 0.16 0.00 0.00 0.17 0.01 0.00 0.00 0.00 7.59 11.10 0.00 0.01 0.00 0.00 1.00 0.00 0.13 130.51 246.12 0.99 0.00 0.06 0.02 0.00 0.00 0.00 0.00 21.48 303.12 20528.08 0.00 0.00 0.03 0.00 0.16 0.00 0.00 0.17 0.01 0.00 0.00 0.00 7.59 11.10 0.00 0.01 0.00 0.00 1.00 0.00 0.13 130.51 246.12 0.99 0.00 0.06 0.02 0.00 0.00 0.00 0.00 1.00 21.48 303.12 20528.08 0.00 0.00 0.03 0.00 0.16 0.00 0.00 0.17 0.01 0.00 0.00 0.00 7.59 11.10 0.00 0.01 0.00 0.00 1.00 0.00 0.13 130.51 246.12 0.99 0.00 0.06 0.02 0.00 0.00 0.00 0.00

4: 0.31 264.14 2561.85 0.00 0.00 0.06 0.00 0.00 0.00 0.00 0.00 0.00 0.00 0.01 0.00 9.81 13.92 0.00 0.00 0.00 0.00 1.00 0.00 0.10 132.64 245.89 0.99 0.00 0.05 0.02 0.00 0.00 0.00 0.00 1.00 0.31 264.14 2561.85 0.00 0.00 0.06 0.00 0.00 0.00 0.00 0.00 0.00 0.00 0.01 0.00 9.81 13.92 0.00 0.00 0.00 0.00 1.00 0.00 0.10 132.64 245.89 0.99 0.00 0.05 0.02 0.00 0.00 0.00 0.00 0.31 264.14 2561.85 0.00 0.00 0.06 0.00 0.00 0.00 0.00 0.00 0.00 0.00 0.01 0.00 9.81 13.92 0.00 0.00 0.00 0.00 1.00 0.00 0.10 132.64 245.89 0.99 0.00 0.05 0.02 0.00 0.00 0.00 0.00 1.00 0.31 264.14 2561.85 0.00 0.00 0.06 0.00 0.00 0.00 0.00 0.00 0.00 0.00 0.01 0.00 9.81 13.92 0.00 0.00 0.00 0.00 1.00 0.00 0.10 132.64 245.89 0.99 0.00 0.05 0.02 0.00 0.00 0.00 0.00

Number of Iteration: 1
Time for I/O: 0.00000sec
Time for Entire Clustering: 0.00000sec
Root Mean Squared Error: 55443.000
