

        *** GPGPU-Sim Simulator Version 3.2.2  [build 0] ***


GPGPU-Sim PTX: simulation mode 0 (can change with PTX_SIM_MODE_FUNC environment variable:
               1=functional simulation only, 0=detailed performance simulator)
GPGPU-Sim: Configuration options:

-network_mode                           1 # Interconnection network mode
-inter_config_file   config_fermi_islip.icnt # Interconnection network config file
-gpgpu_ptx_use_cuobjdump                    1 # Use cuobjdump to extract ptx and sass from binaries
-gpgpu_experimental_lib_support                    0 # Try to extract code from cuda libraries [Broken because of unknown cudaGetExportTable]
-gpgpu_ptx_convert_to_ptxplus                    0 # Convert SASS (native ISA) to ptxplus and run ptxplus
-gpgpu_ptx_force_max_capability                   20 # Force maximum compute capability
-gpgpu_ptx_inst_debug_to_file                    0 # Dump executed instructions' debug information to file
-gpgpu_ptx_inst_debug_file       inst_debug.txt # Executed instructions' debug output file
-gpgpu_ptx_inst_debug_thread_uid                    1 # Thread UID for executed instructions' debug output
-gpgpu_simd_model                       1 # 1 = post-dominator
-gpgpu_shader_core_pipeline              1536:32 # shader core pipeline config, i.e., {<nthread>:<warpsize>}
-gpgpu_tex_cache:l1  4:128:24,L:R:m:N:L,F:128:4,128:2 # per-shader L1 texture cache  (READ-ONLY) config  {<nsets>:<bsize>:<assoc>,<rep>:<wr>:<alloc>:<wr_alloc>,<mshr>:<N>:<merge>,<mq>:<rf>}
-gpgpu_const_cache:l1 64:64:2,L:R:f:N:L,A:2:32,4 # per-shader L1 constant memory cache  (READ-ONLY) config  {<nsets>:<bsize>:<assoc>,<rep>:<wr>:<alloc>:<wr_alloc>,<mshr>:<N>:<merge>,<mq>} 
-gpgpu_cache:il1     4:128:4,L:R:f:N:L,A:2:32,4 # shader L1 instruction cache config  {<nsets>:<bsize>:<assoc>,<rep>:<wr>:<alloc>:<wr_alloc>,<mshr>:<N>:<merge>,<mq>} 
-gpgpu_cache:dl1     64:128:2,L:L:m:N:H,A:32:8,8 # per-shader L1 data cache config  {<nsets>:<bsize>:<assoc>,<rep>:<wr>:<alloc>:<wr_alloc>,<mshr>:<N>:<merge>,<mq> | none}
-gpgpu_cache:dl1PrefL1                 none # per-shader L1 data cache config  {<nsets>:<bsize>:<assoc>,<rep>:<wr>:<alloc>:<wr_alloc>,<mshr>:<N>:<merge>,<mq> | none}
-gpgpu_cache:dl1PreShared                 none # per-shader L1 data cache config  {<nsets>:<bsize>:<assoc>,<rep>:<wr>:<alloc>:<wr_alloc>,<mshr>:<N>:<merge>,<mq> | none}
-gmem_skip_L1D                          0 # global memory access skip L1D cache (implements -Xptxas -dlcm=cg, default=no skip)
-gpgpu_perfect_mem                      0 # enable perfect memory mode (no cache miss)
-n_regfile_gating_group                    4 # group of lanes that should be read/written together)
-gpgpu_clock_gated_reg_file                    0 # enable clock gated reg file for power calculations
-gpgpu_clock_gated_lanes                    0 # enable clock gated lanes for power calculations
-gpgpu_shader_registers                32768 # Number of registers per shader core. Limits number of concurrent CTAs. (default 8192)
-gpgpu_shader_cta                       8 # Maximum number of concurrent CTAs in shader (default 8)
-gpgpu_num_cta_barriers                   16 # Maximum number of named barriers per CTA (default 16)
-gpgpu_n_clusters                      15 # number of processing clusters
-gpgpu_n_cores_per_cluster                    1 # number of simd cores per cluster
-gpgpu_n_cluster_ejection_buffer_size                    8 # number of packets in ejection buffer
-gpgpu_n_ldst_response_buffer_size                    2 # number of response packets in ld/st unit ejection buffer
-gpgpu_shmem_size                   16384 # Size of shared memory per shader core (default 16kB)
-gpgpu_shmem_size                   49152 # Size of shared memory per shader core (default 16kB)
-gpgpu_shmem_size_PrefL1                16384 # Size of shared memory per shader core (default 16kB)
-gpgpu_shmem_size_PrefShared                16384 # Size of shared memory per shader core (default 16kB)
-gpgpu_shmem_num_banks                   32 # Number of banks in the shared memory in each shader core (default 16)
-gpgpu_shmem_limited_broadcast                    0 # Limit shared memory to do one broadcast per cycle (default on)
-gpgpu_shmem_warp_parts                    1 # Number of portions a warp is divided into for shared memory bank conflict check 
-gpgpu_warpdistro_shader                   -1 # Specify which shader core to collect the warp size distribution from
-gpgpu_warp_issue_shader                    0 # Specify which shader core to collect the warp issue distribution from
-gpgpu_local_mem_map                    1 # Mapping from local memory space address to simulated GPU physical address space (default = enabled)
-gpgpu_num_reg_banks                   16 # Number of register banks (default = 8)
-gpgpu_reg_bank_use_warp_id                    0 # Use warp ID in mapping registers to banks (default = off)
-gpgpu_operand_collector_num_units_sp                    6 # number of collector units (default = 4)
-gpgpu_operand_collector_num_units_sfu                    8 # number of collector units (default = 4)
-gpgpu_operand_collector_num_units_mem                    2 # number of collector units (default = 2)
-gpgpu_operand_collector_num_units_gen                    0 # number of collector units (default = 0)
-gpgpu_operand_collector_num_in_ports_sp                    2 # number of collector unit in ports (default = 1)
-gpgpu_operand_collector_num_in_ports_sfu                    1 # number of collector unit in ports (default = 1)
-gpgpu_operand_collector_num_in_ports_mem                    1 # number of collector unit in ports (default = 1)
-gpgpu_operand_collector_num_in_ports_gen                    0 # number of collector unit in ports (default = 0)
-gpgpu_operand_collector_num_out_ports_sp                    2 # number of collector unit in ports (default = 1)
-gpgpu_operand_collector_num_out_ports_sfu                    1 # number of collector unit in ports (default = 1)
-gpgpu_operand_collector_num_out_ports_mem                    1 # number of collector unit in ports (default = 1)
-gpgpu_operand_collector_num_out_ports_gen                    0 # number of collector unit in ports (default = 0)
-gpgpu_coalesce_arch                   13 # Coalescing arch (default = 13, anything else is off for now)
-gpgpu_num_sched_per_core                    2 # Number of warp schedulers per core
-gpgpu_max_insn_issue_per_warp                    1 # Max number of instructions that can be issued per warp in one cycle by scheduler
-gpgpu_simt_core_sim_order                    1 # Select the simulation order of cores in a cluster (0=Fix, 1=Round-Robin)
-gpgpu_pipeline_widths        2,1,1,2,1,1,2 # Pipeline widths ID_OC_SP,ID_OC_SFU,ID_OC_MEM,OC_EX_SP,OC_EX_SFU,OC_EX_MEM,EX_WB
-gpgpu_num_sp_units                     2 # Number of SP units (default=1)
-gpgpu_num_sfu_units                    1 # Number of SF units (default=1)
-gpgpu_num_mem_units                    1 # Number if ldst units (default=1) WARNING: not hooked up to anything
-gpgpu_scheduler                      gto # Scheduler configuration: < lrr | gto | two_level_active > If two_level_active:<num_active_warps>:<inner_prioritization>:<outer_prioritization>For complete list of prioritization values see shader.h enum scheduler_prioritization_typeDefault: gto
-gpgpu_dram_scheduler                    1 # 0 = fifo, 1 = FR-FCFS (defaul)
-gpgpu_dram_partition_queues              8:8:8:8 # i2$:$2d:d2$:$2i
-l2_ideal                               0 # Use a ideal L2 cache that always hit
-gpgpu_cache:dl2     64:128:8,L:B:m:W:L,A:32:4,4:0,32 # unified banked L2 data cache config  {<nsets>:<bsize>:<assoc>,<rep>:<wr>:<alloc>:<wr_alloc>,<mshr>:<N>:<merge>,<mq>}
-gpgpu_cache:dl2_texture_only                    0 # L2 cache used for texture only
-gpgpu_n_mem                            6 # number of memory modules (e.g. memory controllers) in gpu
-gpgpu_n_sub_partition_per_mchannel                    2 # number of memory subpartition in each memory module
-gpgpu_n_mem_per_ctrlr                    2 # number of memory chips per memory controller
-gpgpu_memlatency_stat                   14 # track and display latency statistics 0x2 enables MC, 0x4 enables queue logs
-gpgpu_frfcfs_dram_sched_queue_size                   16 # 0 = unlimited (default); # entries per chip
-gpgpu_dram_return_queue_size                  116 # 0 = unlimited (default); # entries per chip
-gpgpu_dram_buswidth                    4 # default = 4 bytes (8 bytes per cycle at DDR)
-gpgpu_dram_burst_length                    8 # Burst length of each DRAM request (default = 4 data bus cycle)
-dram_data_command_freq_ratio                    4 # Frequency ratio between DRAM data bus and command bus (default = 2 times, i.e. DDR)
-gpgpu_dram_timing_opt nbk=16:CCD=2:RRD=6:RCD=12:RAS=28:RP=12:RC=40: CL=12:WL=4:CDLR=5:WR=12:nbkgrp=4:CCDL=3:RTPL=2 # DRAM timing parameters = {nbk:tCCD:tRRD:tRCD:tRAS:tRP:tRC:CL:WL:tCDLR:tWR:nbkgrp:tCCDL:tRTPL}
-rop_latency                          120 # ROP queue latency (default 85)
-dram_latency                         100 # DRAM latency (default 30)
-gpgpu_mem_addr_mapping dramid@8;00000000.00000000.00000000.00000000.0000RRRR.RRRRRRRR.BBBCCCCB.CCSSSSSS # mapping memory address to dram model {dramid@<start bit>;<memory address map>}
-gpgpu_mem_addr_test                    0 # run sweep test to check address mapping for aliased address
-gpgpu_mem_address_mask                    1 # 0 = old addressing mask, 1 = new addressing mask, 2 = new add. mask + flipped bank sel and chip sel bits
-gpuwattch_xml_file  gpuwattch_gtx480.xml # GPUWattch XML file
-power_simulation_enabled                    1 # Turn on power simulator (1=On, 0=Off)
-power_per_cycle_dump                    0 # Dump detailed power output each cycle
-power_trace_enabled                    0 # produce a file for the power trace (1=On, 0=Off)
-power_trace_zlevel                     6 # Compression level of the power trace output log (0=no comp, 9=highest)
-steady_power_levels_enabled                    0 # produce a file for the steady power levels (1=On, 0=Off)
-steady_state_definition                  8:4 # allowed deviation:number of samples
-gpgpu_max_cycle                        0 # terminates gpu simulation early (0 = no limit)
-gpgpu_max_insn                         0 # terminates gpu simulation early (0 = no limit)
-gpgpu_max_cta                          0 # terminates gpu simulation early (0 = no limit)
-gpgpu_runtime_stat                   500 # display runtime statistics such as dram utilization {<freq>:<flag>}
-liveness_message_freq                    1 # Minimum number of seconds between simulation liveness messages (0 = always print)
-gpgpu_flush_l1_cache                    0 # Flush L1 cache at the end of each kernel call
-gpgpu_flush_l2_cache                    0 # Flush L2 cache at the end of each kernel call
-gpgpu_deadlock_detect                    1 # Stop the simulation at deadlock (1=on (default), 0=off)
-gpgpu_ptx_instruction_classification                    0 # if enabled will classify ptx instruction types per kernel (Max 255 kernels now)
-gpgpu_ptx_sim_mode                     0 # Select between Performance (default) or Functional simulation (1)
-gpgpu_clock_domains 700.0:700.0:700.0:924.0 # Clock Domain Frequencies in MhZ {<Core Clock>:<ICNT Clock>:<L2 Clock>:<DRAM Clock>}
-gpgpu_max_concurrent_kernel                    8 # maximum kernels that can run concurrently on GPU
-gpgpu_cflog_interval                    0 # Interval between each snapshot in control flow logger
-visualizer_enabled                     0 # Turn on visualizer output (1=On, 0=Off)
-visualizer_outputfile                 NULL # Specifies the output log file for visualizer
-visualizer_zlevel                      6 # Compression level of the visualizer output log (0=no comp, 9=highest)
-trace_enabled                          0 # Turn on traces
-trace_components                    none # comma seperated list of traces to enable. Complete list found in trace_streams.tup. Default none
-trace_sampling_core                    0 # The core which is printed using CORE_DPRINTF. Default 0
-trace_sampling_memory_partition                   -1 # The memory partition which is printed using MEMPART_DPRINTF. Default -1 (i.e. all)
-enable_ptx_file_line_stats                    1 # Turn on PTX source line statistic profiling. (1 = On)
-ptx_line_stats_filename gpgpu_inst_stats.txt # Output file for PTX source line statistics.
-save_embedded_ptx                      0 # saves ptx files embedded in binary as <n>.ptx
-keep                                   0 # keep intermediate files created by GPGPU-Sim when interfacing with external programs
-gpgpu_ptx_save_converted_ptxplus                    0 # Saved converted ptxplus to a file
-ptx_opcode_latency_int         4,13,4,5,145 # Opcode latencies for integers <ADD,MAX,MUL,MAD,DIV>Default 1,1,19,25,145
-ptx_opcode_latency_fp          4,13,4,5,39 # Opcode latencies for single precision floating points <ADD,MAX,MUL,MAD,DIV>Default 1,1,1,1,30
-ptx_opcode_latency_dp         8,19,8,8,330 # Opcode latencies for double precision floating points <ADD,MAX,MUL,MAD,DIV>Default 8,8,8,8,335
-ptx_opcode_initiation_int            1,2,2,1,8 # Opcode initiation intervals for integers <ADD,MAX,MUL,MAD,DIV>Default 1,1,4,4,32
-ptx_opcode_initiation_fp            1,2,1,1,4 # Opcode initiation intervals for single precision floating points <ADD,MAX,MUL,MAD,DIV>Default 1,1,1,1,5
-ptx_opcode_initiation_dp         8,16,8,8,130 # Opcode initiation intervals for double precision floating points <ADD,MAX,MUL,MAD,DIV>Default 8,8,8,8,130
DRAM Timing Options:
nbk                                    16 # number of banks
CCD                                     2 # column to column delay
RRD                                     6 # minimal delay between activation of rows in different banks
RCD                                    12 # row to column delay
RAS                                    28 # time needed to activate row
RP                                     12 # time needed to precharge (deactivate) row
RC                                     40 # row cycle time
CDLR                                    5 # switching from write to read (changes tWTR)
WR                                     12 # last data-in to row precharge
CL                                     12 # CAS latency
WL                                      4 # Write latency
nbkgrp                                  4 # number of bank groups
CCDL                                    3 # column to column delay between accesses to different bank groups
RTPL                                    2 # read to precharge delay between accesses to different bank groups
Total number of memory sub partition = 12
addr_dec_mask[CHIP]  = 0000000000000000 	high:64 low:0
addr_dec_mask[BK]    = 000000000000e100 	high:16 low:8
addr_dec_mask[ROW]   = 000000000fff0000 	high:28 low:16
addr_dec_mask[COL]   = 0000000000001eff 	high:13 low:0
addr_dec_mask[BURST] = 000000000000003f 	high:6 low:0
sub_partition_id_mask = 0000000000000100
GPGPU-Sim uArch: clock freqs: 700000000.000000:700000000.000000:700000000.000000:924000000.000000
GPGPU-Sim uArch: clock periods: 0.00000000142857142857:0.00000000142857142857:0.00000000142857142857:0.00000000108225108225
*** Initializing Memory Statistics ***
GPGPU-Sim uArch: interconnect node map (shaderID+MemID to icntID)
GPGPU-Sim uArch: Memory nodes ID start from index: 15
GPGPU-Sim uArch:    0   1   2   3   4
GPGPU-Sim uArch:    5   6   7   8   9
GPGPU-Sim uArch:   10  11  12  13  14
GPGPU-Sim uArch:   15  16  17  18  19
GPGPU-Sim uArch:   20  21  22  23  24
GPGPU-Sim uArch:   25  26
GPGPU-Sim uArch: interconnect node reverse map (icntID to shaderID+MemID)
GPGPU-Sim uArch: Memory nodes start from ID: 15
GPGPU-Sim uArch:    0   1   2   3   4
GPGPU-Sim uArch:    5   6   7   8   9
GPGPU-Sim uArch:   10  11  12  13  14
GPGPU-Sim uArch:   15  16  17  18  19
GPGPU-Sim uArch:   20  21  22  23  24
GPGPU-Sim uArch:   25  26
76921fba15ffd374ad2c9ad88216e3c5  /home/scratch/adwait/applications/benchmarks/CUDA/LIB/gpgpu_ptx_sim__LIB
GPGPU-Sim uArch: performance model initialization complete.
GPGPU-Sim PTX: __cudaRegisterFatBinary, fat_cubin_handle = 1, filename=libor.cu
self exe links to: /home/scratch/adwait/applications/benchmarks/CUDA/LIB/gpgpu_ptx_sim__LIB
Running md5sum using "md5sum /home/scratch/adwait/applications/benchmarks/CUDA/LIB/gpgpu_ptx_sim__LIB "
Running cuobjdump using "$CUDA_INSTALL_PATH/bin/cuobjdump -ptx -elf -sass /home/scratch/adwait/applications/benchmarks/CUDA/LIB/gpgpu_ptx_sim__LIB > _cuobjdump_complete_output_K3o7yz"
Parsing file _cuobjdump_complete_output_K3o7yz
######### cuobjdump parser ########
## Adding new section ELF
Adding arch: sm_20
Adding identifier: libor.cu
## Adding new section PTX
Adding ptx filename: _cuobjdump_1.ptx
Adding arch: sm_20
Adding identifier: libor.cu
Done parsing!!!
GPGPU-Sim PTX: __cudaRegisterFunction _Z29Pathcalc_Portfolio_KernelGPU2Pf : hostFun 0x0x40508c, fat_cubin_handle = 1
GPGPU-Sim PTX: allocating stack frame region for .param "__cudaparmf1__Z9path_calcPfS_" from 0x0 to 0x8
GPGPU-Sim PTX: allocating stack frame region for .param "__cudaparmf2__Z9path_calcPfS_" from 0x8 to 0x10
GPGPU-Sim PTX: allocating stack frame region for .param "__cudaparmf1__Z12path_calc_b1PfS_S_" from 0x0 to 0x8
GPGPU-Sim PTX: allocating stack frame region for .param "__cudaparmf2__Z12path_calc_b1PfS_S_" from 0x8 to 0x10
GPGPU-Sim PTX: allocating stack frame region for .param "__cudaparmf3__Z12path_calc_b1PfS_S_" from 0x10 to 0x18
GPGPU-Sim PTX: allocating stack frame region for .param "__cudaparmf1__Z12path_calc_b2PfS_S_" from 0x0 to 0x8
GPGPU-Sim PTX: allocating stack frame region for .param "__cudaparmf2__Z12path_calc_b2PfS_S_" from 0x8 to 0x10
GPGPU-Sim PTX: allocating stack frame region for .param "__cudaparmf3__Z12path_calc_b2PfS_S_" from 0x10 to 0x18
GPGPU-Sim PTX: allocating stack frame region for .param "__cudaretf__Z11portfolio_bPfS_" from 0x0 to 0x4
GPGPU-Sim PTX: allocating stack frame region for .param "__cudaparmf1__Z11portfolio_bPfS_" from 0x4 to 0xc
GPGPU-Sim PTX: allocating stack frame region for .param "__cudaparmf2__Z11portfolio_bPfS_" from 0xc to 0x14
GPGPU-Sim PTX: allocating stack frame region for .param "__cudaretf__Z9portfolioPf" from 0x0 to 0x4
GPGPU-Sim PTX: allocating stack frame region for .param "__cudaparmf1__Z9portfolioPf" from 0x4 to 0xc
GPGPU-Sim PTX: allocating constant region for "N" from 0x100 to 0x104 (global memory space) 1
GPGPU-Sim PTX: allocating constant region for "Nmat" from 0x104 to 0x108 (global memory space) 2
GPGPU-Sim PTX: allocating constant region for "delta" from 0x108 to 0x10c (global memory space) 3
GPGPU-Sim PTX: allocating constant region for "lambda" from 0x180 to 0x2c0 (global memory space) 4
GPGPU-Sim PTX: instruction assembly for function '_Z9path_calcPfS_'...   done.
GPGPU-Sim PTX: finding reconvergence points for '_Z9path_calcPfS_'...
GPGPU-Sim PTX: Finding dominators for '_Z9path_calcPfS_'...
GPGPU-Sim PTX: Finding immediate dominators for '_Z9path_calcPfS_'...
GPGPU-Sim PTX: Finding postdominators for '_Z9path_calcPfS_'...
GPGPU-Sim PTX: Finding immediate postdominators for '_Z9path_calcPfS_'...
GPGPU-Sim PTX: pre-decoding instructions for '_Z9path_calcPfS_'...
GPGPU-Sim PTX: reconvergence points for _Z9path_calcPfS_...
GPGPU-Sim PTX:  1 (potential) branch divergence @  PC=0x038 (_1.ptx:81) @%p1 bra $Lt_0_2306;
GPGPU-Sim PTX:    immediate post dominator      @  PC=0x218 (_1.ptx:153) ret;
GPGPU-Sim PTX:  2 (potential) branch divergence @  PC=0x0a8 (_1.ptx:99) @%p2 bra $Lt_0_3074;
GPGPU-Sim PTX:    immediate post dominator      @  PC=0x1f8 (_1.ptx:147) mov.s32 %r5, %r7;
GPGPU-Sim PTX:  3 (potential) branch divergence @  PC=0x1f0 (_1.ptx:145) @%p3 bra $Lt_0_3586;
GPGPU-Sim PTX:    immediate post dominator      @  PC=0x1f8 (_1.ptx:147) mov.s32 %r5, %r7;
GPGPU-Sim PTX:  4 (potential) branch divergence @  PC=0x210 (_1.ptx:150) @%p4 bra $Lt_0_2818;
GPGPU-Sim PTX:    immediate post dominator      @  PC=0x218 (_1.ptx:153) ret;
GPGPU-Sim PTX: ... end of reconvergence points for _Z9path_calcPfS_
GPGPU-Sim PTX: ... done pre-decoding instructions for '_Z9path_calcPfS_'.
GPGPU-Sim PTX: instruction assembly for function '_Z12path_calc_b1PfS_S_'...   done.
GPGPU-Sim PTX: finding reconvergence points for '_Z12path_calc_b1PfS_S_'...
GPGPU-Sim PTX: Finding dominators for '_Z12path_calc_b1PfS_S_'...
GPGPU-Sim PTX: Finding immediate dominators for '_Z12path_calc_b1PfS_S_'...
GPGPU-Sim PTX: Finding postdominators for '_Z12path_calc_b1PfS_S_'...
GPGPU-Sim PTX: Finding immediate postdominators for '_Z12path_calc_b1PfS_S_'...
GPGPU-Sim PTX: pre-decoding instructions for '_Z12path_calc_b1PfS_S_'...
GPGPU-Sim PTX: reconvergence points for _Z12path_calc_b1PfS_S_...
GPGPU-Sim PTX:  1 (potential) branch divergence @  PC=0x268 (_1.ptx:175) @%p1 bra $Lt_1_3330;
GPGPU-Sim PTX:    immediate post dominator      @  PC=0x2d0 (_1.ptx:192) ld.const.s32 %r6, [Nmat];
GPGPU-Sim PTX:  2 (potential) branch divergence @  PC=0x2c8 (_1.ptx:190) @%p2 bra $Lt_1_3842;
GPGPU-Sim PTX:    immediate post dominator      @  PC=0x2d0 (_1.ptx:192) ld.const.s32 %r6, [Nmat];
GPGPU-Sim PTX:  3 (potential) branch divergence @  PC=0x2e8 (_1.ptx:195) @%p3 bra $Lt_1_4354;
GPGPU-Sim PTX:    immediate post dominator      @  PC=0x4f8 (_1.ptx:274) ret;
GPGPU-Sim PTX:  4 (potential) branch divergence @  PC=0x350 (_1.ptx:212) @%p4 bra $Lt_1_5122;
GPGPU-Sim PTX:    immediate post dominator      @  PC=0x4d8 (_1.ptx:268) mov.s32 %r9, %r11;
GPGPU-Sim PTX:  5 (potential) branch divergence @  PC=0x4d0 (_1.ptx:266) @%p5 bra $Lt_1_5634;
GPGPU-Sim PTX:    immediate post dominator      @  PC=0x4d8 (_1.ptx:268) mov.s32 %r9, %r11;
GPGPU-Sim PTX:  6 (potential) branch divergence @  PC=0x4f0 (_1.ptx:271) @%p6 bra $Lt_1_4866;
GPGPU-Sim PTX:    immediate post dominator      @  PC=0x4f8 (_1.ptx:274) ret;
GPGPU-Sim PTX: ... end of reconvergence points for _Z12path_calc_b1PfS_S_
GPGPU-Sim PTX: ... done pre-decoding instructions for '_Z12path_calc_b1PfS_S_'.
GPGPU-Sim PTX: instruction assembly for function '_Z12path_calc_b2PfS_S_'...   done.
GPGPU-Sim PTX: finding reconvergence points for '_Z12path_calc_b2PfS_S_'...
GPGPU-Sim PTX: Finding dominators for '_Z12path_calc_b2PfS_S_'...
GPGPU-Sim PTX: Finding immediate dominators for '_Z12path_calc_b2PfS_S_'...
GPGPU-Sim PTX: Finding postdominators for '_Z12path_calc_b2PfS_S_'...
GPGPU-Sim PTX: Finding immediate postdominators for '_Z12path_calc_b2PfS_S_'...
GPGPU-Sim PTX: pre-decoding instructions for '_Z12path_calc_b2PfS_S_'...
GPGPU-Sim PTX: reconvergence points for _Z12path_calc_b2PfS_S_...
GPGPU-Sim PTX:  1 (potential) branch divergence @  PC=0x548 (_1.ptx:297) @%p1 bra $Lt_2_2306;
GPGPU-Sim PTX:    immediate post dominator      @  PC=0x730 (_1.ptx:368) ret;
GPGPU-Sim PTX:  2 (potential) branch divergence @  PC=0x580 (_1.ptx:306) @%p2 bra $Lt_2_3074;
GPGPU-Sim PTX:    immediate post dominator      @  PC=0x710 (_1.ptx:362) sub.s32 %r3, %r3, 1;
GPGPU-Sim PTX:  3 (potential) branch divergence @  PC=0x708 (_1.ptx:360) @%p3 bra $Lt_2_3586;
GPGPU-Sim PTX:    immediate post dominator      @  PC=0x710 (_1.ptx:362) sub.s32 %r3, %r3, 1;
GPGPU-Sim PTX:  4 (potential) branch divergence @  PC=0x728 (_1.ptx:365) @%p4 bra $Lt_2_2818;
GPGPU-Sim PTX:    immediate post dominator      @  PC=0x730 (_1.ptx:368) ret;
GPGPU-Sim PTX: ... end of reconvergence points for _Z12path_calc_b2PfS_S_
GPGPU-Sim PTX: ... done pre-decoding instructions for '_Z12path_calc_b2PfS_S_'.
GPGPU-Sim PTX: allocating constant region for "Nopt" from 0x2c0 to 0x2c4 (global memory space) 5
GPGPU-Sim PTX: allocating constant region for "maturities" from 0x300 to 0x33c (global memory space) 6
GPGPU-Sim PTX: allocating constant region for "swaprates" from 0x380 to 0x3bc (global memory space) 7
GPGPU-Sim PTX: allocating stack frame region for .local "__cuda___cuda_local_var_33501_9_non_const_B_16440" from 0x80 to 0x120
GPGPU-Sim PTX: allocating stack frame region for .local "__cuda___cuda_local_var_33501_16_non_const_S_176600" from 0x180 to 0x220
GPGPU-Sim PTX: allocating stack frame region for .local "__cuda___cuda_local_var_33501_23_non_const_B_b_336760" from 0x280 to 0x320
GPGPU-Sim PTX: allocating stack frame region for .local "__cuda___cuda_local_var_33501_32_non_const_S_b_496920" from 0x380 to 0x420
GPGPU-Sim PTX: instruction assembly for function '_Z11portfolio_bPfS_'...   done.
GPGPU-Sim PTX: finding reconvergence points for '_Z11portfolio_bPfS_'...
GPGPU-Sim PTX: Finding dominators for '_Z11portfolio_bPfS_'...
GPGPU-Sim PTX: Finding immediate dominators for '_Z11portfolio_bPfS_'...
GPGPU-Sim PTX: Finding postdominators for '_Z11portfolio_bPfS_'...
GPGPU-Sim PTX: Finding immediate postdominators for '_Z11portfolio_bPfS_'...
GPGPU-Sim PTX: pre-decoding instructions for '_Z11portfolio_bPfS_'...
GPGPU-Sim PTX: reconvergence points for _Z11portfolio_bPfS_...
GPGPU-Sim PTX:  1 (potential) branch divergence @  PC=0x780 (_1.ptx:397) @!%p1 bra $Lt_3_8962;
GPGPU-Sim PTX:    immediate post dominator      @  PC=0x868 (_1.ptx:433) @!%p1 bra $Lt_3_9986;
GPGPU-Sim PTX:  2 (potential) branch divergence @  PC=0x860 (_1.ptx:431) @%p2 bra $Lt_3_9474;
GPGPU-Sim PTX:    immediate post dominator      @  PC=0x868 (_1.ptx:433) @!%p1 bra $Lt_3_9986;
GPGPU-Sim PTX:  3 (potential) branch divergence @  PC=0x868 (_1.ptx:433) @!%p1 bra $Lt_3_9986;
GPGPU-Sim PTX:    immediate post dominator      @  PC=0x8e0 (_1.ptx:453) ld.const.s32 %r11, [Nopt];
GPGPU-Sim PTX:  4 (potential) branch divergence @  PC=0x8d8 (_1.ptx:451) @%p3 bra $Lt_3_10498;
GPGPU-Sim PTX:    immediate post dominator      @  PC=0x8e0 (_1.ptx:453) ld.const.s32 %r11, [Nopt];
GPGPU-Sim PTX:  5 (potential) branch divergence @  PC=0x8f8 (_1.ptx:456) @%p4 bra $Lt_3_17666;
GPGPU-Sim PTX:    immediate post dominator      @  PC=0xa80 (_1.ptx:515) sub.s32 %r17, %r3, 1;
GPGPU-Sim PTX:  6 (potential) branch divergence @  PC=0x9c8 (_1.ptx:485) @!%p5 bra $Lt_3_11778;
GPGPU-Sim PTX:    immediate post dominator      @  PC=0xa30 (_1.ptx:502) add.s32 %r14, %r14, 1;
GPGPU-Sim PTX:  7 (potential) branch divergence @  PC=0xa50 (_1.ptx:506) @%p6 bra $Lt_3_11522;
GPGPU-Sim PTX:    immediate post dominator      @  PC=0xa58 (_1.ptx:507) bra.uni $Lt_3_11010;
GPGPU-Sim PTX:  8 (potential) branch divergence @  PC=0xa58 (_1.ptx:507) bra.uni $Lt_3_11010;
GPGPU-Sim PTX:    immediate post dominator      @  PC=0xa80 (_1.ptx:515) sub.s32 %r17, %r3, 1;
GPGPU-Sim PTX:  9 (potential) branch divergence @  PC=0xa98 (_1.ptx:518) @%p7 bra $Lt_3_12546;
GPGPU-Sim PTX:    immediate post dominator      @  PC=0xc60 (_1.ptx:583) mov.s32 %r22, 0;
GPGPU-Sim PTX: 10 (potential) branch divergence @  PC=0xba0 (_1.ptx:555) @%p8 bra $Lt_3_13314;
GPGPU-Sim PTX:    immediate post dominator      @  PC=0xc20 (_1.ptx:574) sub.s32 %r6, %r6, 1;
GPGPU-Sim PTX: 11 (potential) branch divergence @  PC=0xc58 (_1.ptx:581) @%p9 bra $Lt_3_13058;
GPGPU-Sim PTX:    immediate post dominator      @  PC=0xc60 (_1.ptx:583) mov.s32 %r22, 0;
GPGPU-Sim PTX: 12 (potential) branch divergence @  PC=0xc70 (_1.ptx:585) @!%p10 bra $Lt_3_18178;
GPGPU-Sim PTX:    immediate post dominator      @  PC=0xd18 (_1.ptx:612) mul.f32 %f10, %f10, %f3;
GPGPU-Sim PTX: 13 (potential) branch divergence @  PC=0xd00 (_1.ptx:606) @%p11 bra $Lt_3_14594;
GPGPU-Sim PTX:    immediate post dominator      @  PC=0xd08 (_1.ptx:607) bra.uni $Lt_3_14082;
GPGPU-Sim PTX: 14 (potential) branch divergence @  PC=0xd08 (_1.ptx:607) bra.uni $Lt_3_14082;
GPGPU-Sim PTX:    immediate post dominator      @  PC=0xd18 (_1.ptx:612) mul.f32 %f10, %f10, %f3;
GPGPU-Sim PTX: 15 (potential) branch divergence @  PC=0xd20 (_1.ptx:613) @!%p10 bra $Lt_3_15106;
GPGPU-Sim PTX:    immediate post dominator      @  PC=0xdd8 (_1.ptx:641) mov.s32 %r14, %r1;
GPGPU-Sim PTX: 16 (potential) branch divergence @  PC=0xdd0 (_1.ptx:638) @%p12 bra $Lt_3_15618;
GPGPU-Sim PTX:    immediate post dominator      @  PC=0xdd8 (_1.ptx:641) mov.s32 %r14, %r1;
GPGPU-Sim PTX: 17 (potential) branch divergence @  PC=0xde8 (_1.ptx:643) @%p13 bra $Lt_3_16130;
GPGPU-Sim PTX:    immediate post dominator      @  PC=0xe50 (_1.ptx:661) mov.f32 %f54, %f10;
GPGPU-Sim PTX: 18 (potential) branch divergence @  PC=0xe48 (_1.ptx:658) @%p14 bra $Lt_3_16642;
GPGPU-Sim PTX:    immediate post dominator      @  PC=0xe50 (_1.ptx:661) mov.f32 %f54, %f10;
GPGPU-Sim PTX: ... end of reconvergence points for _Z11portfolio_bPfS_
GPGPU-Sim PTX: ... done pre-decoding instructions for '_Z11portfolio_bPfS_'.
GPGPU-Sim PTX: allocating stack frame region for .local "__cuda___cuda_local_var_33564_27_non_const_B_01080" from 0x80 to 0x120
GPGPU-Sim PTX: allocating stack frame region for .local "__cuda___cuda_local_var_33564_34_non_const_S_1601240" from 0x180 to 0x220
GPGPU-Sim PTX: instruction assembly for function '_Z9portfolioPf'...   done.
GPGPU-Sim PTX: finding reconvergence points for '_Z9portfolioPf'...
GPGPU-Sim PTX: Finding dominators for '_Z9portfolioPf'...
GPGPU-Sim PTX: Finding immediate dominators for '_Z9portfolioPf'...
GPGPU-Sim PTX: Finding postdominators for '_Z9portfolioPf'...
GPGPU-Sim PTX: Finding immediate postdominators for '_Z9portfolioPf'...
GPGPU-Sim PTX: pre-decoding instructions for '_Z9portfolioPf'...
GPGPU-Sim PTX: reconvergence points for _Z9portfolioPf...
GPGPU-Sim PTX:  1 (potential) branch divergence @  PC=0xe90 (_1.ptx:684) @%p1 bra $Lt_4_4098;
GPGPU-Sim PTX:    immediate post dominator      @  PC=0xf90 (_1.ptx:723) cvta.local.u64 %rd3, __cuda___cuda_local_var_33564_27_non_const_B_01080;
GPGPU-Sim PTX:  2 (potential) branch divergence @  PC=0xf88 (_1.ptx:721) @%p2 bra $Lt_4_4610;
GPGPU-Sim PTX:    immediate post dominator      @  PC=0xf90 (_1.ptx:723) cvta.local.u64 %rd3, __cuda___cuda_local_var_33564_27_non_const_B_01080;
GPGPU-Sim PTX:  3 (potential) branch divergence @  PC=0xfb8 (_1.ptx:728) @%p3 bra $Lt_4_7426;
GPGPU-Sim PTX:    immediate post dominator      @  PC=0x10d0 (_1.ptx:769) mov.u32 %r13, 0;
GPGPU-Sim PTX:  4 (potential) branch divergence @  PC=0x10b8 (_1.ptx:764) @%p5 bra $Lt_4_5634;
GPGPU-Sim PTX:    immediate post dominator      @  PC=0x10c0 (_1.ptx:765) bra.uni $Lt_4_5122;
GPGPU-Sim PTX:  5 (potential) branch divergence @  PC=0x10c0 (_1.ptx:765) bra.uni $Lt_4_5122;
GPGPU-Sim PTX:    immediate post dominator      @  PC=0x10d0 (_1.ptx:769) mov.u32 %r13, 0;
GPGPU-Sim PTX:  6 (potential) branch divergence @  PC=0x10e0 (_1.ptx:771) @%p6 bra $Lt_4_7682;
GPGPU-Sim PTX:    immediate post dominator      @  PC=0x1188 (_1.ptx:798) mul.f32 %f16, %f6, %f3;
GPGPU-Sim PTX:  7 (potential) branch divergence @  PC=0x1170 (_1.ptx:792) @%p7 bra $Lt_4_6658;
GPGPU-Sim PTX:    immediate post dominator      @  PC=0x1178 (_1.ptx:793) bra.uni $Lt_4_6146;
GPGPU-Sim PTX:  8 (potential) branch divergence @  PC=0x1178 (_1.ptx:793) bra.uni $Lt_4_6146;
GPGPU-Sim PTX:    immediate post dominator      @  PC=0x1188 (_1.ptx:798) mul.f32 %f16, %f6, %f3;
GPGPU-Sim PTX: ... end of reconvergence points for _Z9portfolioPf
GPGPU-Sim PTX: ... done pre-decoding instructions for '_Z9portfolioPf'.
GPGPU-Sim PTX: allocating stack frame region for .local "__cuda___cuda_local_var_33501_32_non_const_S_b_161416" from 0x0 to 0xa0
GPGPU-Sim PTX: allocating stack frame region for .local "__cuda___cuda_local_var_33501_16_non_const_S_1761576" from 0x100 to 0x1a0
GPGPU-Sim PTX: allocating stack frame region for .local "__cuda___cuda_local_var_33602_16_non_const_L2_3361736" from 0x200 to 0x3540
GPGPU-Sim PTX: allocating stack frame region for .local "__cuda___cuda_local_var_33501_23_non_const_B_b_1345614856" from 0x3580 to 0x3620
GPGPU-Sim PTX: allocating stack frame region for .local "__cuda___cuda_local_var_33501_9_non_const_B_1361615016" from 0x3680 to 0x3720
GPGPU-Sim PTX: allocating stack frame region for .local "__cuda___cuda_local_var_33602_26_non_const_z_1377615176" from 0x3780 to 0x38c0
GPGPU-Sim PTX: allocating stack frame region for .local "__cuda___cuda_local_var_33602_9_non_const_L_1409615496" from 0x3900 to 0x3a40
GPGPU-Sim PTX: instruction assembly for function '_Z28Pathcalc_Portfolio_KernelGPUPfS_'...   done.
GPGPU-Sim PTX: finding reconvergence points for '_Z28Pathcalc_Portfolio_KernelGPUPfS_'...
GPGPU-Sim PTX: Finding dominators for '_Z28Pathcalc_Portfolio_KernelGPUPfS_'...
GPGPU-Sim PTX: Finding immediate dominators for '_Z28Pathcalc_Portfolio_KernelGPUPfS_'...
GPGPU-Sim PTX: Finding postdominators for '_Z28Pathcalc_Portfolio_KernelGPUPfS_'...
GPGPU-Sim PTX: Finding immediate postdominators for '_Z28Pathcalc_Portfolio_KernelGPUPfS_'...
GPGPU-Sim PTX: pre-decoding instructions for '_Z28Pathcalc_Portfolio_KernelGPUPfS_'...
GPGPU-Sim PTX: reconvergence points for _Z28Pathcalc_Portfolio_KernelGPUPfS_...
GPGPU-Sim PTX:  1 (potential) branch divergence @  PC=0x11e0 (_1.ptx:831) @%p1 bra $Lt_5_16130;
GPGPU-Sim PTX:    immediate post dominator      @  PC=0x1e48 (_1.ptx:1310) exit;
GPGPU-Sim PTX:  2 (potential) branch divergence @  PC=0x1320 (_1.ptx:873) @!%p2 bra $Lt_5_17922;
GPGPU-Sim PTX:    immediate post dominator      @  PC=0x1400 (_1.ptx:911) @!%p3 bra $Lt_5_18946;
GPGPU-Sim PTX:  3 (potential) branch divergence @  PC=0x1390 (_1.ptx:891) @%p9 bra $Lt_5_17410;
GPGPU-Sim PTX:    immediate post dominator      @  PC=0x1398 (_1.ptx:894) @!%p2 bra $Lt_5_17922;
GPGPU-Sim PTX:  4 (potential) branch divergence @  PC=0x1398 (_1.ptx:894) @!%p2 bra $Lt_5_17922;
GPGPU-Sim PTX:    immediate post dominator      @  PC=0x1400 (_1.ptx:911) @!%p3 bra $Lt_5_18946;
GPGPU-Sim PTX:  5 (potential) branch divergence @  PC=0x13f8 (_1.ptx:909) @%p10 bra $Lt_5_18434;
GPGPU-Sim PTX:    immediate post dominator      @  PC=0x1400 (_1.ptx:911) @!%p3 bra $Lt_5_18946;
GPGPU-Sim PTX:  6 (potential) branch divergence @  PC=0x1400 (_1.ptx:911) @!%p3 bra $Lt_5_18946;
GPGPU-Sim PTX:    immediate post dominator      @  PC=0x1610 (_1.ptx:989) @!%p6 bra $Lt_5_22018;
GPGPU-Sim PTX:  7 (potential) branch divergence @  PC=0x1438 (_1.ptx:921) @%p11 bra $Lt_5_19714;
GPGPU-Sim PTX:    immediate post dominator      @  PC=0x15f8 (_1.ptx:984) mov.s32 %r29, %r31;
GPGPU-Sim PTX:  8 (potential) branch divergence @  PC=0x15f0 (_1.ptx:982) @%p12 bra $Lt_5_20226;
GPGPU-Sim PTX:    immediate post dominator      @  PC=0x15f8 (_1.ptx:984) mov.s32 %r29, %r31;
GPGPU-Sim PTX:  9 (potential) branch divergence @  PC=0x1608 (_1.ptx:986) @%p13 bra $Lt_5_19458;
GPGPU-Sim PTX:    immediate post dominator      @  PC=0x1610 (_1.ptx:989) @!%p6 bra $Lt_5_22018;
GPGPU-Sim PTX: 10 (potential) branch divergence @  PC=0x1610 (_1.ptx:989) @!%p6 bra $Lt_5_22018;
GPGPU-Sim PTX:    immediate post dominator      @  PC=0x1770 (_1.ptx:1045) @!%p4 bra $Lt_5_33282;
GPGPU-Sim PTX: 11 (potential) branch divergence @  PC=0x16f0 (_1.ptx:1023) @%p14 bra $Lt_5_21506;
GPGPU-Sim PTX:    immediate post dominator      @  PC=0x16f8 (_1.ptx:1025) @!%p6 bra $Lt_5_22018;
GPGPU-Sim PTX: 12 (potential) branch divergence @  PC=0x16f8 (_1.ptx:1025) @!%p6 bra $Lt_5_22018;
GPGPU-Sim PTX:    immediate post dominator      @  PC=0x1770 (_1.ptx:1045) @!%p4 bra $Lt_5_33282;
GPGPU-Sim PTX: 13 (potential) branch divergence @  PC=0x1768 (_1.ptx:1043) @%p15 bra $Lt_5_22530;
GPGPU-Sim PTX:    immediate post dominator      @  PC=0x1770 (_1.ptx:1045) @!%p4 bra $Lt_5_33282;
GPGPU-Sim PTX: 14 (potential) branch divergence @  PC=0x1770 (_1.ptx:1045) @!%p4 bra $Lt_5_33282;
GPGPU-Sim PTX:    immediate post dominator      @  PC=0x18c0 (_1.ptx:1096) @!%p8 bra $Lt_5_24578;
GPGPU-Sim PTX: 15 (potential) branch divergence @  PC=0x1820 (_1.ptx:1070) @!%p16 bra $Lt_5_23810;
GPGPU-Sim PTX:    immediate post dominator      @  PC=0x1888 (_1.ptx:1087) add.s32 %r46, %r46, 1;
GPGPU-Sim PTX: 16 (potential) branch divergence @  PC=0x18a8 (_1.ptx:1091) @%p17 bra $Lt_5_23554;
GPGPU-Sim PTX:    immediate post dominator      @  PC=0x18b0 (_1.ptx:1092) bra.uni $Lt_5_23042;
GPGPU-Sim PTX: 17 (potential) branch divergence @  PC=0x18b0 (_1.ptx:1092) bra.uni $Lt_5_23042;
GPGPU-Sim PTX:    immediate post dominator      @  PC=0x18c0 (_1.ptx:1096) @!%p8 bra $Lt_5_24578;
GPGPU-Sim PTX: 18 (potential) branch divergence @  PC=0x18c0 (_1.ptx:1096) @!%p8 bra $Lt_5_24578;
GPGPU-Sim PTX:    immediate post dominator      @  PC=0x1a58 (_1.ptx:1155) @!%p3 bra $Lt_5_33794;
GPGPU-Sim PTX: 19 (potential) branch divergence @  PC=0x19b8 (_1.ptx:1131) @%p18 bra $Lt_5_25346;
GPGPU-Sim PTX:    immediate post dominator      @  PC=0x1a20 (_1.ptx:1147) sub.s32 %r40, %r40, 1;
GPGPU-Sim PTX: 20 (potential) branch divergence @  PC=0x1a50 (_1.ptx:1153) @%p19 bra $Lt_5_25090;
GPGPU-Sim PTX:    immediate post dominator      @  PC=0x1a58 (_1.ptx:1155) @!%p3 bra $Lt_5_33794;
GPGPU-Sim PTX: 21 (potential) branch divergence @  PC=0x1a58 (_1.ptx:1155) @!%p3 bra $Lt_5_33794;
GPGPU-Sim PTX:    immediate post dominator      @  PC=0x1b00 (_1.ptx:1182) mul.f32 %f30, %f30, %f24;
GPGPU-Sim PTX: 22 (potential) branch divergence @  PC=0x1ae8 (_1.ptx:1176) @%p20 bra $Lt_5_26626;
GPGPU-Sim PTX:    immediate post dominator      @  PC=0x1af0 (_1.ptx:1177) bra.uni $Lt_5_26114;
GPGPU-Sim PTX: 23 (potential) branch divergence @  PC=0x1af0 (_1.ptx:1177) bra.uni $Lt_5_26114;
GPGPU-Sim PTX:    immediate post dominator      @  PC=0x1b00 (_1.ptx:1182) mul.f32 %f30, %f30, %f24;
GPGPU-Sim PTX: 24 (potential) branch divergence @  PC=0x1b08 (_1.ptx:1183) @!%p3 bra $Lt_5_27138;
GPGPU-Sim PTX:    immediate post dominator      @  PC=0x1bb0 (_1.ptx:1209) mov.s32 %r46, %r10;
GPGPU-Sim PTX: 25 (potential) branch divergence @  PC=0x1ba8 (_1.ptx:1206) @%p21 bra $Lt_5_27650;
GPGPU-Sim PTX:    immediate post dominator      @  PC=0x1bb0 (_1.ptx:1209) mov.s32 %r46, %r10;
GPGPU-Sim PTX: 26 (potential) branch divergence @  PC=0x1bb8 (_1.ptx:1210) @!%p5 bra $Lt_5_28162;
GPGPU-Sim PTX:    immediate post dominator      @  PC=0x1c20 (_1.ptx:1228) st.global.f32 [%rd5+0], %f30;
GPGPU-Sim PTX: 27 (potential) branch divergence @  PC=0x1c18 (_1.ptx:1225) @%p22 bra $Lt_5_28674;
GPGPU-Sim PTX:    immediate post dominator      @  PC=0x1c20 (_1.ptx:1228) st.global.f32 [%rd5+0], %f30;
GPGPU-Sim PTX: 28 (potential) branch divergence @  PC=0x1c30 (_1.ptx:1231) @!%p7 bra $Lt_5_29186;
GPGPU-Sim PTX:    immediate post dominator      @  PC=0x1e08 (_1.ptx:1300) ld.local.f32 %f85, [__cuda___cuda_local_var_33602_9_non_const_L_1409615496+316];
GPGPU-Sim PTX: 29 (potential) branch divergence @  PC=0x1c58 (_1.ptx:1238) @%p23 bra $Lt_5_29954;
GPGPU-Sim PTX:    immediate post dominator      @  PC=0x1de8 (_1.ptx:1294) sub.s32 %r57, %r57, 1;
GPGPU-Sim PTX: 30 (potential) branch divergence @  PC=0x1de0 (_1.ptx:1292) @%p24 bra $Lt_5_30466;
GPGPU-Sim PTX:    immediate post dominator      @  PC=0x1de8 (_1.ptx:1294) sub.s32 %r57, %r57, 1;
GPGPU-Sim PTX: 31 (potential) branch divergence @  PC=0x1e00 (_1.ptx:1297) @%p25 bra $Lt_5_29698;
GPGPU-Sim PTX:    immediate post dominator      @  PC=0x1e08 (_1.ptx:1300) ld.local.f32 %f85, [__cuda___cuda_local_var_33602_9_non_const_L_1409615496+316];
GPGPU-Sim PTX: 32 (potential) branch divergence @  PC=0x1e40 (_1.ptx:1307) @%p26 bra $Lt_5_16642;
GPGPU-Sim PTX:    immediate post dominator      @  PC=0x1e48 (_1.ptx:1310) exit;
GPGPU-Sim PTX: ... end of reconvergence points for _Z28Pathcalc_Portfolio_KernelGPUPfS_
GPGPU-Sim PTX: ... done pre-decoding instructions for '_Z28Pathcalc_Portfolio_KernelGPUPfS_'.
GPGPU-Sim PTX: allocating stack frame region for .local "__cuda___cuda_local_var_33564_27_non_const_B_1615824" from 0x0 to 0xa0
GPGPU-Sim PTX: allocating stack frame region for .local "__cuda___cuda_local_var_33628_9_non_const_L_17615984" from 0x100 to 0x240
GPGPU-Sim PTX: allocating stack frame region for .local "__cuda___cuda_local_var_33564_34_non_const_S_49616304" from 0x280 to 0x320
GPGPU-Sim PTX: allocating stack frame region for .local "__cuda___cuda_local_var_33628_16_non_const_z_65616464" from 0x380 to 0x4c0
GPGPU-Sim PTX: instruction assembly for function '_Z29Pathcalc_Portfolio_KernelGPU2Pf'...   done.
GPGPU-Sim PTX: finding reconvergence points for '_Z29Pathcalc_Portfolio_KernelGPU2Pf'...
GPGPU-Sim PTX: Finding dominators for '_Z29Pathcalc_Portfolio_KernelGPU2Pf'...
GPGPU-Sim PTX: Finding immediate dominators for '_Z29Pathcalc_Portfolio_KernelGPU2Pf'...
GPGPU-Sim PTX: Finding postdominators for '_Z29Pathcalc_Portfolio_KernelGPU2Pf'...
GPGPU-Sim PTX: Finding immediate postdominators for '_Z29Pathcalc_Portfolio_KernelGPU2Pf'...
GPGPU-Sim PTX: pre-decoding instructions for '_Z29Pathcalc_Portfolio_KernelGPU2Pf'...
GPGPU-Sim PTX: reconvergence points for _Z29Pathcalc_Portfolio_KernelGPU2Pf...
GPGPU-Sim PTX:  1 (potential) branch divergence @  PC=0x1e90 (_1.ptx:1337) @%p1 bra $Lt_6_8194;
GPGPU-Sim PTX:    immediate post dominator      @  PC=0x2498 (_1.ptx:1571) exit;
GPGPU-Sim PTX:  2 (potential) branch divergence @  PC=0x1f60 (_1.ptx:1365) @!%p2 bra $Lt_6_8962;
GPGPU-Sim PTX:    immediate post dominator      @  PC=0x1fd8 (_1.ptx:1386) @!%p3 bra $Lt_6_9986;
GPGPU-Sim PTX:  3 (potential) branch divergence @  PC=0x1fd0 (_1.ptx:1383) @%p6 bra $Lt_6_9474;
GPGPU-Sim PTX:    immediate post dominator      @  PC=0x1fd8 (_1.ptx:1386) @!%p3 bra $Lt_6_9986;
GPGPU-Sim PTX:  4 (potential) branch divergence @  PC=0x1fd8 (_1.ptx:1386) @!%p3 bra $Lt_6_9986;
GPGPU-Sim PTX:    immediate post dominator      @  PC=0x21b0 (_1.ptx:1456) @!%p4 bra $Lt_6_12034;
GPGPU-Sim PTX:  5 (potential) branch divergence @  PC=0x2010 (_1.ptx:1396) @%p7 bra $Lt_6_10754;
GPGPU-Sim PTX:    immediate post dominator      @  PC=0x2198 (_1.ptx:1451) mov.s32 %r20, %r22;
GPGPU-Sim PTX:  6 (potential) branch divergence @  PC=0x2190 (_1.ptx:1449) @%p8 bra $Lt_6_11266;
GPGPU-Sim PTX:    immediate post dominator      @  PC=0x2198 (_1.ptx:1451) mov.s32 %r20, %r22;
GPGPU-Sim PTX:  7 (potential) branch divergence @  PC=0x21a8 (_1.ptx:1453) @%p9 bra $Lt_6_10498;
GPGPU-Sim PTX:    immediate post dominator      @  PC=0x21b0 (_1.ptx:1456) @!%p4 bra $Lt_6_12034;
GPGPU-Sim PTX:  8 (potential) branch divergence @  PC=0x21b0 (_1.ptx:1456) @!%p4 bra $Lt_6_12034;
GPGPU-Sim PTX:    immediate post dominator      @  PC=0x22a0 (_1.ptx:1493) @!%p5 bra $Lt_6_16642;
GPGPU-Sim PTX:  9 (potential) branch divergence @  PC=0x2298 (_1.ptx:1491) @%p10 bra $Lt_6_12546;
GPGPU-Sim PTX:    immediate post dominator      @  PC=0x22a0 (_1.ptx:1493) @!%p5 bra $Lt_6_16642;
GPGPU-Sim PTX: 10 (potential) branch divergence @  PC=0x22a0 (_1.ptx:1493) @!%p5 bra $Lt_6_16642;
GPGPU-Sim PTX:    immediate post dominator      @  PC=0x23b8 (_1.ptx:1534) @!%p3 bra $Lt_6_16898;
GPGPU-Sim PTX: 11 (potential) branch divergence @  PC=0x23a0 (_1.ptx:1529) @%p12 bra $Lt_6_13570;
GPGPU-Sim PTX:    immediate post dominator      @  PC=0x23a8 (_1.ptx:1530) bra.uni $Lt_6_13058;
GPGPU-Sim PTX: 12 (potential) branch divergence @  PC=0x23a8 (_1.ptx:1530) bra.uni $Lt_6_13058;
GPGPU-Sim PTX:    immediate post dominator      @  PC=0x23b8 (_1.ptx:1534) @!%p3 bra $Lt_6_16898;
GPGPU-Sim PTX: 13 (potential) branch divergence @  PC=0x23b8 (_1.ptx:1534) @!%p3 bra $Lt_6_16898;
GPGPU-Sim PTX:    immediate post dominator      @  PC=0x2460 (_1.ptx:1561) mul.f32 %f25, %f25, %f22;
GPGPU-Sim PTX: 14 (potential) branch divergence @  PC=0x2448 (_1.ptx:1555) @%p13 bra $Lt_6_14594;
GPGPU-Sim PTX:    immediate post dominator      @  PC=0x2450 (_1.ptx:1556) bra.uni $Lt_6_14082;
GPGPU-Sim PTX: 15 (potential) branch divergence @  PC=0x2450 (_1.ptx:1556) bra.uni $Lt_6_14082;
GPGPU-Sim PTX:    immediate post dominator      @  PC=0x2460 (_1.ptx:1561) mul.f32 %f25, %f25, %f22;
GPGPU-Sim PTX: 16 (potential) branch divergence @  PC=0x2490 (_1.ptx:1568) @%p14 bra $Lt_6_8706;
GPGPU-Sim PTX:    immediate post dominator      @  PC=0x2498 (_1.ptx:1571) exit;
GPGPU-Sim PTX: ... end of reconvergence points for _Z29Pathcalc_Portfolio_KernelGPU2Pf
GPGPU-Sim PTX: ... done pre-decoding instructions for '_Z29Pathcalc_Portfolio_KernelGPU2Pf'.
GPGPU-Sim PTX: finished parsing EMBEDDED .ptx file _1.ptx
Adding _cuobjdump_1.ptx with cubin handle 1
GPGPU-Sim PTX: extracting embedded .ptx to temporary file "_ptx_YK9Y2e"
Running: cat _ptx_YK9Y2e | sed 's/.version 1.5/.version 1.4/' | sed 's/, texmode_independent//' | sed 's/\(\.extern \.const\[1\] .b8 \w\+\)\[\]/\1\[1\]/' | sed 's/const\[.\]/const\[0\]/g' > _ptx2_SP2JxU
GPGPU-Sim PTX: generating ptxinfo using "$CUDA_INSTALL_PATH/bin/ptxas --gpu-name=sm_20 -v _ptx2_SP2JxU --output-file  /dev/null 2> _ptx_YK9Y2einfo"
GPGPU-Sim PTX: Kernel '_Z29Pathcalc_Portfolio_KernelGPU2Pf' : regs=33, lmem=4, smem=0, cmem=508
GPGPU-Sim PTX: Kernel '_Z28Pathcalc_Portfolio_KernelGPUPfS_' : regs=41, lmem=4, smem=0, cmem=516
GPGPU-Sim PTX: removing ptxinfo using "rm -f _ptx_YK9Y2e _ptx2_SP2JxU _ptx_YK9Y2einfo"
GPGPU-Sim PTX: loading globals with explicit initializers... 
GPGPU-Sim PTX: finished loading globals (0 bytes total).
GPGPU-Sim PTX: loading constants with explicit initializers...  done.
GPGPU-Sim PTX: __cudaRegisterFunction _Z28Pathcalc_Portfolio_KernelGPUPfS_ : hostFun 0x0x40501e, fat_cubin_handle = 1
GPGPU-Sim PTX: __cudaRegisterVar: hostVar = 0x629400; deviceAddress = N; deviceName = N
GPGPU-Sim PTX: __cudaRegisterVar: Registering const memory space of 4 bytes
GPGPU-Sim PTX registering constant N (4 bytes) to name mapping
GPGPU-Sim PTX: __cudaRegisterVar: hostVar = 0x629404; deviceAddress = Nmat; deviceName = Nmat
GPGPU-Sim PTX: __cudaRegisterVar: Registering const memory space of 4 bytes
GPGPU-Sim PTX registering constant Nmat (4 bytes) to name mapping
GPGPU-Sim PTX: __cudaRegisterVar: hostVar = 0x629408; deviceAddress = Nopt; deviceName = Nopt
GPGPU-Sim PTX: __cudaRegisterVar: Registering const memory space of 4 bytes
GPGPU-Sim PTX registering constant Nopt (4 bytes) to name mapping
GPGPU-Sim PTX: __cudaRegisterVar: hostVar = 0x629420; deviceAddress = maturities; deviceName = maturities
GPGPU-Sim PTX: __cudaRegisterVar: Registering const memory space of 60 bytes
GPGPU-Sim PTX registering constant maturities (60 bytes) to name mapping
GPGPU-Sim PTX: __cudaRegisterVar: hostVar = 0x62945c; deviceAddress = delta; deviceName = delta
GPGPU-Sim PTX: __cudaRegisterVar: Registering const memory space of 4 bytes
GPGPU-Sim PTX registering constant delta (4 bytes) to name mapping
GPGPU-Sim PTX: __cudaRegisterVar: hostVar = 0x629460; deviceAddress = swaprates; deviceName = swaprates
GPGPU-Sim PTX: __cudaRegisterVar: Registering const memory space of 60 bytes
GPGPU-Sim PTX registering constant swaprates (60 bytes) to name mapping
GPGPU-Sim PTX: __cudaRegisterVar: hostVar = 0x6294a0; deviceAddress = lambda; deviceName = lambda
GPGPU-Sim PTX: __cudaRegisterVar: Registering const memory space of 320 bytes
GPGPU-Sim PTX registering constant lambda (320 bytes) to name mapping
GPGPU-Sim PTX: cudaMemcpyToSymbol: symbol = 0x629400
GPGPU-Sim PTX: starting gpgpu_ptx_sim_memcpy_symbol with hostVar 0x0x629400
GPGPU-Sim PTX: gpgpu_ptx_sim_memcpy_symbol: Found PTX symbol w/ hostVar=0x629400
GPGPU-Sim PTX: gpgpu_ptx_sim_memcpy_symbol: copying const memory 4 bytes  to  symbol N+0 @0x100 ...
GPGPU-Sim PTX: cudaMemcpyToSymbol: symbol = 0x629404
GPGPU-Sim PTX: starting gpgpu_ptx_sim_memcpy_symbol with hostVar 0x0x629404
GPGPU-Sim PTX: gpgpu_ptx_sim_memcpy_symbol: Found PTX symbol w/ hostVar=0x629404
GPGPU-Sim PTX: gpgpu_ptx_sim_memcpy_symbol: copying const memory 4 bytes  to  symbol Nmat+0 @0x104 ...
GPGPU-Sim PTX: cudaMemcpyToSymbol: symbol = 0x629408
GPGPU-Sim PTX: starting gpgpu_ptx_sim_memcpy_symbol with hostVar 0x0x629408
GPGPU-Sim PTX: gpgpu_ptx_sim_memcpy_symbol: Found PTX symbol w/ hostVar=0x629408
GPGPU-Sim PTX: gpgpu_ptx_sim_memcpy_symbol: copying const memory 4 bytes  to  symbol Nopt+0 @0x2c0 ...
GPGPU-Sim PTX: cudaMemcpyToSymbol: symbol = 0x62945c
GPGPU-Sim PTX: starting gpgpu_ptx_sim_memcpy_symbol with hostVar 0x0x62945c
GPGPU-Sim PTX: gpgpu_ptx_sim_memcpy_symbol: Found PTX symbol w/ hostVar=0x62945c
GPGPU-Sim PTX: gpgpu_ptx_sim_memcpy_symbol: copying const memory 4 bytes  to  symbol delta+0 @0x108 ...
GPGPU-Sim PTX: cudaMemcpyToSymbol: symbol = 0x629420
GPGPU-Sim PTX: starting gpgpu_ptx_sim_memcpy_symbol with hostVar 0x0x629420
GPGPU-Sim PTX: gpgpu_ptx_sim_memcpy_symbol: Found PTX symbol w/ hostVar=0x629420
GPGPU-Sim PTX: gpgpu_ptx_sim_memcpy_symbol: copying const memory 60 bytes  to  symbol maturities+0 @0x300 ...
GPGPU-Sim PTX: cudaMemcpyToSymbol: symbol = 0x629460
GPGPU-Sim PTX: starting gpgpu_ptx_sim_memcpy_symbol with hostVar 0x0x629460
GPGPU-Sim PTX: gpgpu_ptx_sim_memcpy_symbol: Found PTX symbol w/ hostVar=0x629460
GPGPU-Sim PTX: gpgpu_ptx_sim_memcpy_symbol: copying const memory 60 bytes  to  symbol swaprates+0 @0x380 ...
GPGPU-Sim PTX: cudaMemcpyToSymbol: symbol = 0x6294a0
GPGPU-Sim PTX: starting gpgpu_ptx_sim_memcpy_symbol with hostVar 0x0x6294a0
GPGPU-Sim PTX: gpgpu_ptx_sim_memcpy_symbol: Found PTX symbol w/ hostVar=0x6294a0
GPGPU-Sim PTX: gpgpu_ptx_sim_memcpy_symbol: copying const memory 320 bytes  to  symbol lambda+0 @0x180 ...
GPGPU-Sim: synchronize waiting for inactive GPU simulation
GPGPU-Sim API: Stream Manager State
GPGPU-Sim: detected inactive GPU simulation thread

GPGPU-Sim PTX: cudaLaunch for 0x0x40508c (mode=performance simulation) on stream 0
GPGPU-Sim PTX: pushing kernel '_Z29Pathcalc_Portfolio_KernelGPU2Pf' to stream 0, gridDim= (64,1,1) blockDim = (64,1,1) 
kernel '_Z29Pathcalc_Portfolio_KernelGPU2Pf' transfer to GPU hardware scheduler
GPGPU-Sim uArch: Shader 1 bind to kernel 1 '_Z29Pathcalc_Portfolio_KernelGPU2Pf'
GPGPU-Sim uArch: CTA/core = 8, limited by: cta_limit
GPGPU-Sim uArch: core:  1, cta: 0 initialized @(1,0)
GPGPU-Sim uArch: Shader 2 bind to kernel 1 '_Z29Pathcalc_Portfolio_KernelGPU2Pf'
GPGPU-Sim uArch: core:  2, cta: 0 initialized @(1,0)
GPGPU-Sim uArch: Shader 3 bind to kernel 1 '_Z29Pathcalc_Portfolio_KernelGPU2Pf'
GPGPU-Sim uArch: core:  3, cta: 0 initialized @(1,0)
GPGPU-Sim uArch: Shader 4 bind to kernel 1 '_Z29Pathcalc_Portfolio_KernelGPU2Pf'
GPGPU-Sim uArch: core:  4, cta: 0 initialized @(1,0)
GPGPU-Sim uArch: Shader 5 bind to kernel 1 '_Z29Pathcalc_Portfolio_KernelGPU2Pf'
GPGPU-Sim uArch: core:  5, cta: 0 initialized @(1,0)
GPGPU-Sim uArch: Shader 6 bind to kernel 1 '_Z29Pathcalc_Portfolio_KernelGPU2Pf'
GPGPU-Sim uArch: core:  6, cta: 0 initialized @(1,0)
GPGPU-Sim uArch: Shader 7 bind to kernel 1 '_Z29Pathcalc_Portfolio_KernelGPU2Pf'
GPGPU-Sim uArch: core:  7, cta: 0 initialized @(1,0)
GPGPU-Sim uArch: Shader 8 bind to kernel 1 '_Z29Pathcalc_Portfolio_KernelGPU2Pf'
GPGPU-Sim uArch: core:  8, cta: 0 initialized @(1,0)
GPGPU-Sim uArch: Shader 9 bind to kernel 1 '_Z29Pathcalc_Portfolio_KernelGPU2Pf'
GPGPU-Sim uArch: core:  9, cta: 0 initialized @(1,0)
GPGPU-Sim uArch: Shader 10 bind to kernel 1 '_Z29Pathcalc_Portfolio_KernelGPU2Pf'
GPGPU-Sim uArch: core: 10, cta: 0 initialized @(1,0)
GPGPU-Sim uArch: Shader 11 bind to kernel 1 '_Z29Pathcalc_Portfolio_KernelGPU2Pf'
GPGPU-Sim uArch: core: 11, cta: 0 initialized @(1,0)
GPGPU-Sim uArch: Shader 12 bind to kernel 1 '_Z29Pathcalc_Portfolio_KernelGPU2Pf'
GPGPU-Sim uArch: core: 12, cta: 0 initialized @(1,0)
GPGPU-Sim uArch: Shader 13 bind to kernel 1 '_Z29Pathcalc_Portfolio_KernelGPU2Pf'
GPGPU-Sim uArch: core: 13, cta: 0 initialized @(1,0)
GPGPU-Sim uArch: Shader 14 bind to kernel 1 '_Z29Pathcalc_Portfolio_KernelGPU2Pf'
GPGPU-Sim uArch: core: 14, cta: 0 initialized @(1,0)
GPGPU-Sim uArch: Shader 0 bind to kernel 1 '_Z29Pathcalc_Portfolio_KernelGPU2Pf'
GPGPU-Sim uArch: core:  0, cta: 0 initialized @(1,0)
GPGPU-Sim uArch: core:  1, cta: 1 initialized @(2,0)
GPGPU-Sim uArch: core:  2, cta: 1 initialized @(2,0)
GPGPU-Sim uArch: core:  3, cta: 1 initialized @(2,0)
GPGPU-Sim uArch: core:  4, cta: 1 initialized @(2,0)
GPGPU-Sim uArch: core:  5, cta: 1 initialized @(2,0)
GPGPU-Sim uArch: core:  6, cta: 1 initialized @(2,0)
GPGPU-Sim uArch: core:  7, cta: 1 initialized @(2,0)
GPGPU-Sim uArch: core:  8, cta: 1 initialized @(2,0)
GPGPU-Sim uArch: core:  9, cta: 1 initialized @(2,0)
GPGPU-Sim uArch: core: 10, cta: 1 initialized @(2,0)
GPGPU-Sim uArch: core: 11, cta: 1 initialized @(2,0)
GPGPU-Sim uArch: core: 12, cta: 1 initialized @(2,0)
GPGPU-Sim uArch: core: 13, cta: 1 initialized @(2,0)
GPGPU-Sim uArch: core: 14, cta: 1 initialized @(2,0)
GPGPU-Sim uArch: core:  0, cta: 1 initialized @(2,0)
GPGPU-Sim uArch: core:  1, cta: 2 initialized @(3,0)
GPGPU-Sim uArch: core:  2, cta: 2 initialized @(3,0)
GPGPU-Sim uArch: core:  3, cta: 2 initialized @(3,0)
GPGPU-Sim uArch: core:  4, cta: 2 initialized @(3,0)
GPGPU-Sim uArch: core:  5, cta: 2 initialized @(3,0)
GPGPU-Sim uArch: core:  6, cta: 2 initialized @(3,0)
GPGPU-Sim uArch: core:  7, cta: 2 initialized @(3,0)
GPGPU-Sim uArch: core:  8, cta: 2 initialized @(3,0)
GPGPU-Sim uArch: core:  9, cta: 2 initialized @(3,0)
GPGPU-Sim uArch: core: 10, cta: 2 initialized @(3,0)
GPGPU-Sim uArch: core: 11, cta: 2 initialized @(3,0)
GPGPU-Sim uArch: core: 12, cta: 2 initialized @(3,0)
GPGPU-Sim uArch: core: 13, cta: 2 initialized @(3,0)
GPGPU-Sim uArch: core: 14, cta: 2 initialized @(3,0)
GPGPU-Sim uArch: core:  0, cta: 2 initialized @(3,0)
GPGPU-Sim uArch: core:  1, cta: 3 initialized @(4,0)
GPGPU-Sim uArch: core:  2, cta: 3 initialized @(4,0)
GPGPU-Sim uArch: core:  3, cta: 3 initialized @(4,0)
GPGPU-Sim uArch: core:  4, cta: 3 initialized @(4,0)
GPGPU-Sim uArch: core:  5, cta: 3 initialized @(4,0)
GPGPU-Sim uArch: core:  6, cta: 3 initialized @(4,0)
GPGPU-Sim uArch: core:  7, cta: 3 initialized @(4,0)
GPGPU-Sim uArch: core:  8, cta: 3 initialized @(4,0)
GPGPU-Sim uArch: core:  9, cta: 3 initialized @(4,0)
GPGPU-Sim uArch: core: 10, cta: 3 initialized @(4,0)
GPGPU-Sim uArch: core: 11, cta: 3 initialized @(4,0)
GPGPU-Sim uArch: core: 12, cta: 3 initialized @(4,0)
GPGPU-Sim uArch: core: 13, cta: 3 initialized @(4,0)
GPGPU-Sim uArch: core: 14, cta: 3 initialized @(4,0)
GPGPU-Sim uArch: core:  0, cta: 3 initialized @(4,0)
GPGPU-Sim uArch: core:  1, cta: 4 initialized @(5,0)
GPGPU-Sim uArch: core:  2, cta: 4 initialized @(5,0)
GPGPU-Sim uArch: core:  3, cta: 4 initialized @(5,0)
GPGPU-Sim uArch: core:  4, cta: 4 initialized @(5,0)
GPGPU-Sim uArch: cycles simulated: 500  inst.: 24576 (ipc=49.2) sim_rate=24576 (inst/sec) elapsed = 0:0:00:01 / Tue Apr 16 16:55:27 2019
GPGPU-Sim uArch: cycles simulated: 1000  inst.: 65536 (ipc=65.5) sim_rate=32768 (inst/sec) elapsed = 0:0:00:02 / Tue Apr 16 16:55:28 2019
GPGPU-Sim PTX: 100000 instructions simulated : ctaid=(41,0,0) tid=(31,0,0)
GPGPU-Sim PTX: 200000 instructions simulated : ctaid=(2,0,0) tid=(31,0,0)
GPGPU-Sim uArch: cycles simulated: 2500  inst.: 284864 (ipc=113.9) sim_rate=94954 (inst/sec) elapsed = 0:0:00:03 / Tue Apr 16 16:55:29 2019
GPGPU-Sim PTX: 300000 instructions simulated : ctaid=(0,0,0) tid=(31,0,0)
GPGPU-Sim uArch: cycles simulated: 3500  inst.: 351328 (ipc=100.4) sim_rate=87832 (inst/sec) elapsed = 0:0:00:04 / Tue Apr 16 16:55:30 2019
GPGPU-Sim PTX: 400000 instructions simulated : ctaid=(23,0,0) tid=(31,0,0)
GPGPU-Sim PTX: 500000 instructions simulated : ctaid=(17,0,0) tid=(31,0,0)
GPGPU-Sim uArch: cycles simulated: 5000  inst.: 490272 (ipc=98.1) sim_rate=98054 (inst/sec) elapsed = 0:0:00:05 / Tue Apr 16 16:55:31 2019
GPGPU-Sim PTX: 600000 instructions simulated : ctaid=(5,0,0) tid=(31,0,0)
GPGPU-Sim uArch: cycles simulated: 7000  inst.: 678880 (ipc=97.0) sim_rate=113146 (inst/sec) elapsed = 0:0:00:06 / Tue Apr 16 16:55:32 2019
GPGPU-Sim PTX: 700000 instructions simulated : ctaid=(11,0,0) tid=(31,0,0)
GPGPU-Sim PTX: 800000 instructions simulated : ctaid=(29,0,0) tid=(31,0,0)
GPGPU-Sim uArch: cycles simulated: 8500  inst.: 818176 (ipc=96.3) sim_rate=116882 (inst/sec) elapsed = 0:0:00:07 / Tue Apr 16 16:55:33 2019
GPGPU-Sim PTX: 900000 instructions simulated : ctaid=(16,0,0) tid=(31,0,0)
GPGPU-Sim uArch: cycles simulated: 10000  inst.: 975040 (ipc=97.5) sim_rate=121880 (inst/sec) elapsed = 0:0:00:08 / Tue Apr 16 16:55:34 2019
GPGPU-Sim PTX: 1000000 instructions simulated : ctaid=(17,0,0) tid=(31,0,0)
GPGPU-Sim PTX: 1100000 instructions simulated : ctaid=(36,0,0) tid=(31,0,0)
GPGPU-Sim uArch: cycles simulated: 11500  inst.: 1120384 (ipc=97.4) sim_rate=124487 (inst/sec) elapsed = 0:0:00:09 / Tue Apr 16 16:55:35 2019
GPGPU-Sim PTX: 1200000 instructions simulated : ctaid=(14,0,0) tid=(63,0,0)
GPGPU-Sim uArch: cycles simulated: 13000  inst.: 1277728 (ipc=98.3) sim_rate=127772 (inst/sec) elapsed = 0:0:00:10 / Tue Apr 16 16:55:36 2019
GPGPU-Sim PTX: 1300000 instructions simulated : ctaid=(41,0,0) tid=(31,0,0)
GPGPU-Sim PTX: 1400000 instructions simulated : ctaid=(53,0,0) tid=(31,0,0)
GPGPU-Sim uArch: cycles simulated: 14500  inst.: 1440416 (ipc=99.3) sim_rate=130946 (inst/sec) elapsed = 0:0:00:11 / Tue Apr 16 16:55:37 2019
GPGPU-Sim PTX: 1500000 instructions simulated : ctaid=(59,0,0) tid=(31,0,0)
GPGPU-Sim PTX: 1600000 instructions simulated : ctaid=(63,0,0) tid=(31,0,0)
GPGPU-Sim uArch: cycles simulated: 16000  inst.: 1610080 (ipc=100.6) sim_rate=134173 (inst/sec) elapsed = 0:0:00:12 / Tue Apr 16 16:55:38 2019
GPGPU-Sim PTX: 1700000 instructions simulated : ctaid=(51,0,0) tid=(31,0,0)
GPGPU-Sim PTX: 1800000 instructions simulated : ctaid=(43,0,0) tid=(31,0,0)
GPGPU-Sim uArch: cycles simulated: 17500  inst.: 1787680 (ipc=102.2) sim_rate=137513 (inst/sec) elapsed = 0:0:00:13 / Tue Apr 16 16:55:39 2019
GPGPU-Sim PTX: 1900000 instructions simulated : ctaid=(9,0,0) tid=(63,0,0)
GPGPU-Sim uArch: cycles simulated: 18500  inst.: 1909920 (ipc=103.2) sim_rate=136422 (inst/sec) elapsed = 0:0:00:14 / Tue Apr 16 16:55:40 2019
GPGPU-Sim PTX: 2000000 instructions simulated : ctaid=(31,0,0) tid=(31,0,0)
GPGPU-Sim PTX: 2100000 instructions simulated : ctaid=(61,0,0) tid=(31,0,0)
GPGPU-Sim uArch: cycles simulated: 20000  inst.: 2110112 (ipc=105.5) sim_rate=140674 (inst/sec) elapsed = 0:0:00:15 / Tue Apr 16 16:55:41 2019
GPGPU-Sim PTX: 2200000 instructions simulated : ctaid=(4,0,0) tid=(31,0,0)
GPGPU-Sim PTX: 2300000 instructions simulated : ctaid=(14,0,0) tid=(63,0,0)
GPGPU-Sim uArch: cycles simulated: 21500  inst.: 2311264 (ipc=107.5) sim_rate=144454 (inst/sec) elapsed = 0:0:00:16 / Tue Apr 16 16:55:42 2019
GPGPU-Sim PTX: 2400000 instructions simulated : ctaid=(21,0,0) tid=(31,0,0)
GPGPU-Sim uArch: cycles simulated: 22500  inst.: 2440736 (ipc=108.5) sim_rate=143572 (inst/sec) elapsed = 0:0:00:17 / Tue Apr 16 16:55:43 2019
GPGPU-Sim PTX: 2500000 instructions simulated : ctaid=(35,0,0) tid=(63,0,0)
GPGPU-Sim PTX: 2600000 instructions simulated : ctaid=(16,0,0) tid=(63,0,0)
GPGPU-Sim uArch: cycles simulated: 24000  inst.: 2661824 (ipc=110.9) sim_rate=147879 (inst/sec) elapsed = 0:0:00:18 / Tue Apr 16 16:55:44 2019
GPGPU-Sim PTX: 2700000 instructions simulated : ctaid=(5,0,0) tid=(31,0,0)
GPGPU-Sim PTX: 2800000 instructions simulated : ctaid=(34,0,0) tid=(31,0,0)
GPGPU-Sim uArch: cycles simulated: 25500  inst.: 2874368 (ipc=112.7) sim_rate=151282 (inst/sec) elapsed = 0:0:00:19 / Tue Apr 16 16:55:45 2019
GPGPU-Sim PTX: 2900000 instructions simulated : ctaid=(42,0,0) tid=(31,0,0)
GPGPU-Sim PTX: 3000000 instructions simulated : ctaid=(59,0,0) tid=(63,0,0)
GPGPU-Sim uArch: cycles simulated: 26500  inst.: 3035872 (ipc=114.6) sim_rate=151793 (inst/sec) elapsed = 0:0:00:20 / Tue Apr 16 16:55:46 2019
GPGPU-Sim PTX: 3100000 instructions simulated : ctaid=(52,0,0) tid=(63,0,0)
GPGPU-Sim PTX: 3200000 instructions simulated : ctaid=(44,0,0) tid=(63,0,0)
GPGPU-Sim PTX: 3300000 instructions simulated : ctaid=(41,0,0) tid=(63,0,0)
GPGPU-Sim uArch: cycles simulated: 28000  inst.: 3278112 (ipc=117.1) sim_rate=156100 (inst/sec) elapsed = 0:0:00:21 / Tue Apr 16 16:55:47 2019
GPGPU-Sim PTX: 3400000 instructions simulated : ctaid=(0,0,0) tid=(63,0,0)
GPGPU-Sim uArch: cycles simulated: 29000  inst.: 3450496 (ipc=119.0) sim_rate=156840 (inst/sec) elapsed = 0:0:00:22 / Tue Apr 16 16:55:48 2019
GPGPU-Sim PTX: 3500000 instructions simulated : ctaid=(49,0,0) tid=(63,0,0)
GPGPU-Sim PTX: 3600000 instructions simulated : ctaid=(51,0,0) tid=(63,0,0)
GPGPU-Sim PTX: 3700000 instructions simulated : ctaid=(50,0,0) tid=(63,0,0)
GPGPU-Sim uArch: cycles simulated: 30500  inst.: 3704384 (ipc=121.5) sim_rate=161060 (inst/sec) elapsed = 0:0:00:23 / Tue Apr 16 16:55:49 2019
GPGPU-Sim PTX: 3800000 instructions simulated : ctaid=(57,0,0) tid=(31,0,0)
GPGPU-Sim PTX: 3900000 instructions simulated : ctaid=(11,0,0) tid=(31,0,0)
GPGPU-Sim uArch: cycles simulated: 31500  inst.: 3938816 (ipc=125.0) sim_rate=164117 (inst/sec) elapsed = 0:0:00:24 / Tue Apr 16 16:55:50 2019
GPGPU-Sim PTX: 4000000 instructions simulated : ctaid=(36,0,0) tid=(31,0,0)
GPGPU-Sim PTX: 4100000 instructions simulated : ctaid=(26,0,0) tid=(63,0,0)
GPGPU-Sim PTX: 4200000 instructions simulated : ctaid=(5,0,0) tid=(63,0,0)
GPGPU-Sim uArch: cycles simulated: 32500  inst.: 4188736 (ipc=128.9) sim_rate=167549 (inst/sec) elapsed = 0:0:00:25 / Tue Apr 16 16:55:51 2019
GPGPU-Sim PTX: 4300000 instructions simulated : ctaid=(24,0,0) tid=(31,0,0)
GPGPU-Sim PTX: 4400000 instructions simulated : ctaid=(2,0,0) tid=(63,0,0)
GPGPU-Sim uArch: cycles simulated: 33500  inst.: 4419808 (ipc=131.9) sim_rate=169992 (inst/sec) elapsed = 0:0:00:26 / Tue Apr 16 16:55:52 2019
GPGPU-Sim PTX: 4500000 instructions simulated : ctaid=(32,0,0) tid=(63,0,0)
GPGPU-Sim PTX: 4600000 instructions simulated : ctaid=(60,0,0) tid=(31,0,0)
GPGPU-Sim uArch: cycles simulated: 34500  inst.: 4656864 (ipc=135.0) sim_rate=172476 (inst/sec) elapsed = 0:0:00:27 / Tue Apr 16 16:55:53 2019
GPGPU-Sim PTX: 4700000 instructions simulated : ctaid=(9,0,0) tid=(63,0,0)
GPGPU-Sim PTX: 4800000 instructions simulated : ctaid=(27,0,0) tid=(63,0,0)
GPGPU-Sim PTX: 4900000 instructions simulated : ctaid=(34,0,0) tid=(31,0,0)
GPGPU-Sim PTX: 5000000 instructions simulated : ctaid=(25,0,0) tid=(63,0,0)
GPGPU-Sim uArch: cycles simulated: 36000  inst.: 5023392 (ipc=139.5) sim_rate=179406 (inst/sec) elapsed = 0:0:00:28 / Tue Apr 16 16:55:54 2019
GPGPU-Sim PTX: 5100000 instructions simulated : ctaid=(26,0,0) tid=(63,0,0)
GPGPU-Sim PTX: 5200000 instructions simulated : ctaid=(26,0,0) tid=(31,0,0)
GPGPU-Sim uArch: cycles simulated: 37000  inst.: 5267264 (ipc=142.4) sim_rate=181629 (inst/sec) elapsed = 0:0:00:29 / Tue Apr 16 16:55:55 2019
GPGPU-Sim PTX: 5300000 instructions simulated : ctaid=(49,0,0) tid=(31,0,0)
GPGPU-Sim PTX: 5400000 instructions simulated : ctaid=(0,0,0) tid=(31,0,0)
GPGPU-Sim PTX: 5500000 instructions simulated : ctaid=(55,0,0) tid=(31,0,0)
GPGPU-Sim uArch: cycles simulated: 38000  inst.: 5516896 (ipc=145.2) sim_rate=183896 (inst/sec) elapsed = 0:0:00:30 / Tue Apr 16 16:55:56 2019
GPGPU-Sim PTX: 5600000 instructions simulated : ctaid=(32,0,0) tid=(31,0,0)
GPGPU-Sim PTX: 5700000 instructions simulated : ctaid=(20,0,0) tid=(63,0,0)
GPGPU-Sim uArch: cycles simulated: 39000  inst.: 5764480 (ipc=147.8) sim_rate=185950 (inst/sec) elapsed = 0:0:00:31 / Tue Apr 16 16:55:57 2019
GPGPU-Sim PTX: 5800000 instructions simulated : ctaid=(8,0,0) tid=(31,0,0)
GPGPU-Sim PTX: 5900000 instructions simulated : ctaid=(37,0,0) tid=(31,0,0)
GPGPU-Sim PTX: 6000000 instructions simulated : ctaid=(48,0,0) tid=(63,0,0)
GPGPU-Sim uArch: cycles simulated: 40000  inst.: 6008928 (ipc=150.2) sim_rate=187779 (inst/sec) elapsed = 0:0:00:32 / Tue Apr 16 16:55:58 2019
GPGPU-Sim PTX: 6100000 instructions simulated : ctaid=(4,0,0) tid=(63,0,0)
GPGPU-Sim PTX: 6200000 instructions simulated : ctaid=(24,0,0) tid=(63,0,0)
GPGPU-Sim PTX: 6300000 instructions simulated : ctaid=(27,0,0) tid=(63,0,0)
GPGPU-Sim PTX: 6400000 instructions simulated : ctaid=(9,0,0) tid=(31,0,0)
GPGPU-Sim uArch: cycles simulated: 41500  inst.: 6374880 (ipc=153.6) sim_rate=193178 (inst/sec) elapsed = 0:0:00:33 / Tue Apr 16 16:55:59 2019
GPGPU-Sim PTX: 6500000 instructions simulated : ctaid=(32,0,0) tid=(31,0,0)
GPGPU-Sim PTX: 6600000 instructions simulated : ctaid=(20,0,0) tid=(63,0,0)
GPGPU-Sim uArch: cycles simulated: 42500  inst.: 6619200 (ipc=155.7) sim_rate=194682 (inst/sec) elapsed = 0:0:00:34 / Tue Apr 16 16:56:00 2019
GPGPU-Sim PTX: 6700000 instructions simulated : ctaid=(2,0,0) tid=(63,0,0)
GPGPU-Sim PTX: 6800000 instructions simulated : ctaid=(50,0,0) tid=(31,0,0)
GPGPU-Sim uArch: cycles simulated: 43500  inst.: 6861728 (ipc=157.7) sim_rate=196049 (inst/sec) elapsed = 0:0:00:35 / Tue Apr 16 16:56:01 2019
GPGPU-Sim PTX: 6900000 instructions simulated : ctaid=(48,0,0) tid=(31,0,0)
GPGPU-Sim PTX: 7000000 instructions simulated : ctaid=(33,0,0) tid=(63,0,0)
GPGPU-Sim PTX: 7100000 instructions simulated : ctaid=(48,0,0) tid=(31,0,0)
GPGPU-Sim uArch: cycles simulated: 44500  inst.: 7107424 (ipc=159.7) sim_rate=197428 (inst/sec) elapsed = 0:0:00:36 / Tue Apr 16 16:56:02 2019
GPGPU-Sim PTX: 7200000 instructions simulated : ctaid=(14,0,0) tid=(63,0,0)
GPGPU-Sim PTX: 7300000 instructions simulated : ctaid=(61,0,0) tid=(63,0,0)
GPGPU-Sim PTX: 7400000 instructions simulated : ctaid=(60,0,0) tid=(63,0,0)
GPGPU-Sim uArch: cycles simulated: 46000  inst.: 7470656 (ipc=162.4) sim_rate=201909 (inst/sec) elapsed = 0:0:00:37 / Tue Apr 16 16:56:03 2019
GPGPU-Sim PTX: 7500000 instructions simulated : ctaid=(36,0,0) tid=(31,0,0)
GPGPU-Sim PTX: 7600000 instructions simulated : ctaid=(5,0,0) tid=(63,0,0)
GPGPU-Sim PTX: 7700000 instructions simulated : ctaid=(63,0,0) tid=(31,0,0)
GPGPU-Sim uArch: cycles simulated: 47000  inst.: 7718464 (ipc=164.2) sim_rate=203117 (inst/sec) elapsed = 0:0:00:38 / Tue Apr 16 16:56:04 2019
GPGPU-Sim PTX: 7800000 instructions simulated : ctaid=(29,0,0) tid=(31,0,0)
GPGPU-Sim PTX: 7900000 instructions simulated : ctaid=(16,0,0) tid=(63,0,0)
GPGPU-Sim uArch: cycles simulated: 48000  inst.: 7967328 (ipc=166.0) sim_rate=204290 (inst/sec) elapsed = 0:0:00:39 / Tue Apr 16 16:56:05 2019
GPGPU-Sim PTX: 8000000 instructions simulated : ctaid=(40,0,0) tid=(63,0,0)
GPGPU-Sim PTX: 8100000 instructions simulated : ctaid=(34,0,0) tid=(31,0,0)
GPGPU-Sim PTX: 8200000 instructions simulated : ctaid=(61,0,0) tid=(63,0,0)
GPGPU-Sim uArch: cycles simulated: 49000  inst.: 8214368 (ipc=167.6) sim_rate=205359 (inst/sec) elapsed = 0:0:00:40 / Tue Apr 16 16:56:06 2019
GPGPU-Sim PTX: 8300000 instructions simulated : ctaid=(42,0,0) tid=(63,0,0)
GPGPU-Sim PTX: 8400000 instructions simulated : ctaid=(47,0,0) tid=(63,0,0)
GPGPU-Sim uArch: cycles simulated: 50000  inst.: 8460352 (ipc=169.2) sim_rate=206350 (inst/sec) elapsed = 0:0:00:41 / Tue Apr 16 16:56:07 2019
GPGPU-Sim PTX: 8500000 instructions simulated : ctaid=(0,0,0) tid=(63,0,0)
GPGPU-Sim PTX: 8600000 instructions simulated : ctaid=(10,0,0) tid=(63,0,0)
GPGPU-Sim PTX: 8700000 instructions simulated : ctaid=(35,0,0) tid=(63,0,0)
GPGPU-Sim PTX: 8800000 instructions simulated : ctaid=(40,0,0) tid=(63,0,0)
GPGPU-Sim uArch: cycles simulated: 51500  inst.: 8828256 (ipc=171.4) sim_rate=210196 (inst/sec) elapsed = 0:0:00:42 / Tue Apr 16 16:56:08 2019
GPGPU-Sim PTX: 8900000 instructions simulated : ctaid=(39,0,0) tid=(63,0,0)
GPGPU-Sim PTX: 9000000 instructions simulated : ctaid=(54,0,0) tid=(31,0,0)
GPGPU-Sim uArch: cycles simulated: 52500  inst.: 9068672 (ipc=172.7) sim_rate=210899 (inst/sec) elapsed = 0:0:00:43 / Tue Apr 16 16:56:09 2019
GPGPU-Sim PTX: 9100000 instructions simulated : ctaid=(3,0,0) tid=(63,0,0)
GPGPU-Sim PTX: 9200000 instructions simulated : ctaid=(37,0,0) tid=(63,0,0)
GPGPU-Sim PTX: 9300000 instructions simulated : ctaid=(1,0,0) tid=(31,0,0)
GPGPU-Sim uArch: cycles simulated: 53500  inst.: 9313696 (ipc=174.1) sim_rate=211674 (inst/sec) elapsed = 0:0:00:44 / Tue Apr 16 16:56:10 2019
GPGPU-Sim PTX: 9400000 instructions simulated : ctaid=(32,0,0) tid=(63,0,0)
GPGPU-Sim PTX: 9500000 instructions simulated : ctaid=(21,0,0) tid=(63,0,0)
GPGPU-Sim uArch: cycles simulated: 54500  inst.: 9555616 (ipc=175.3) sim_rate=212347 (inst/sec) elapsed = 0:0:00:45 / Tue Apr 16 16:56:11 2019
GPGPU-Sim PTX: 9600000 instructions simulated : ctaid=(21,0,0) tid=(63,0,0)
GPGPU-Sim PTX: 9700000 instructions simulated : ctaid=(8,0,0) tid=(63,0,0)
GPGPU-Sim PTX: 9800000 instructions simulated : ctaid=(12,0,0) tid=(63,0,0)
GPGPU-Sim uArch: cycles simulated: 55500  inst.: 9795680 (ipc=176.5) sim_rate=212949 (inst/sec) elapsed = 0:0:00:46 / Tue Apr 16 16:56:12 2019
GPGPU-Sim PTX: 9900000 instructions simulated : ctaid=(15,0,0) tid=(31,0,0)
GPGPU-Sim PTX: 10000000 instructions simulated : ctaid=(8,0,0) tid=(31,0,0)
GPGPU-Sim PTX: 10100000 instructions simulated : ctaid=(23,0,0) tid=(31,0,0)
GPGPU-Sim uArch: cycles simulated: 57000  inst.: 10155872 (ipc=178.2) sim_rate=216082 (inst/sec) elapsed = 0:0:00:47 / Tue Apr 16 16:56:13 2019
GPGPU-Sim PTX: 10200000 instructions simulated : ctaid=(5,0,0) tid=(63,0,0)
GPGPU-Sim PTX: 10300000 instructions simulated : ctaid=(13,0,0) tid=(31,0,0)
GPGPU-Sim PTX: 10400000 instructions simulated : ctaid=(34,0,0) tid=(63,0,0)
GPGPU-Sim uArch: cycles simulated: 58000  inst.: 10394880 (ipc=179.2) sim_rate=216560 (inst/sec) elapsed = 0:0:00:48 / Tue Apr 16 16:56:14 2019
GPGPU-Sim PTX: 10500000 instructions simulated : ctaid=(48,0,0) tid=(31,0,0)
GPGPU-Sim PTX: 10600000 instructions simulated : ctaid=(7,0,0) tid=(31,0,0)
GPGPU-Sim uArch: cycles simulated: 59000  inst.: 10633088 (ipc=180.2) sim_rate=217001 (inst/sec) elapsed = 0:0:00:49 / Tue Apr 16 16:56:15 2019
GPGPU-Sim PTX: 10700000 instructions simulated : ctaid=(44,0,0) tid=(63,0,0)
GPGPU-Sim PTX: 10800000 instructions simulated : ctaid=(1,0,0) tid=(31,0,0)
GPGPU-Sim uArch: cycles simulated: 60000  inst.: 10872704 (ipc=181.2) sim_rate=217454 (inst/sec) elapsed = 0:0:00:50 / Tue Apr 16 16:56:16 2019
GPGPU-Sim PTX: 10900000 instructions simulated : ctaid=(18,0,0) tid=(31,0,0)
GPGPU-Sim PTX: 11000000 instructions simulated : ctaid=(22,0,0) tid=(31,0,0)
GPGPU-Sim PTX: 11100000 instructions simulated : ctaid=(49,0,0) tid=(63,0,0)
GPGPU-Sim PTX: 11200000 instructions simulated : ctaid=(55,0,0) tid=(63,0,0)
GPGPU-Sim uArch: cycles simulated: 61500  inst.: 11223040 (ipc=182.5) sim_rate=220059 (inst/sec) elapsed = 0:0:00:51 / Tue Apr 16 16:56:17 2019
GPGPU-Sim PTX: 11300000 instructions simulated : ctaid=(27,0,0) tid=(63,0,0)
GPGPU-Sim PTX: 11400000 instructions simulated : ctaid=(25,0,0) tid=(31,0,0)
GPGPU-Sim uArch: cycles simulated: 62500  inst.: 11462496 (ipc=183.4) sim_rate=220432 (inst/sec) elapsed = 0:0:00:52 / Tue Apr 16 16:56:18 2019
GPGPU-Sim PTX: 11500000 instructions simulated : ctaid=(61,0,0) tid=(63,0,0)
GPGPU-Sim PTX: 11600000 instructions simulated : ctaid=(6,0,0) tid=(31,0,0)
GPGPU-Sim PTX: 11700000 instructions simulated : ctaid=(55,0,0) tid=(31,0,0)
GPGPU-Sim uArch: cycles simulated: 63500  inst.: 11699360 (ipc=184.2) sim_rate=220742 (inst/sec) elapsed = 0:0:00:53 / Tue Apr 16 16:56:19 2019
GPGPU-Sim PTX: 11800000 instructions simulated : ctaid=(59,0,0) tid=(31,0,0)
GPGPU-Sim PTX: 11900000 instructions simulated : ctaid=(49,0,0) tid=(63,0,0)
GPGPU-Sim uArch: cycles simulated: 64500  inst.: 11934816 (ipc=185.0) sim_rate=221015 (inst/sec) elapsed = 0:0:00:54 / Tue Apr 16 16:56:20 2019
GPGPU-Sim PTX: 12000000 instructions simulated : ctaid=(48,0,0) tid=(31,0,0)
GPGPU-Sim PTX: 12100000 instructions simulated : ctaid=(6,0,0) tid=(63,0,0)
GPGPU-Sim PTX: 12200000 instructions simulated : ctaid=(38,0,0) tid=(63,0,0)
GPGPU-Sim PTX: 12300000 instructions simulated : ctaid=(43,0,0) tid=(31,0,0)
GPGPU-Sim uArch: cycles simulated: 66000  inst.: 12294016 (ipc=186.3) sim_rate=223527 (inst/sec) elapsed = 0:0:00:55 / Tue Apr 16 16:56:21 2019
GPGPU-Sim PTX: 12400000 instructions simulated : ctaid=(11,0,0) tid=(31,0,0)
GPGPU-Sim PTX: 12500000 instructions simulated : ctaid=(36,0,0) tid=(63,0,0)
GPGPU-Sim uArch: cycles simulated: 67000  inst.: 12530368 (ipc=187.0) sim_rate=223756 (inst/sec) elapsed = 0:0:00:56 / Tue Apr 16 16:56:22 2019
GPGPU-Sim PTX: 12600000 instructions simulated : ctaid=(8,0,0) tid=(63,0,0)
GPGPU-Sim PTX: 12700000 instructions simulated : ctaid=(8,0,0) tid=(31,0,0)
GPGPU-Sim uArch: cycles simulated: 68000  inst.: 12765600 (ipc=187.7) sim_rate=223957 (inst/sec) elapsed = 0:0:00:57 / Tue Apr 16 16:56:23 2019
GPGPU-Sim PTX: 12800000 instructions simulated : ctaid=(29,0,0) tid=(63,0,0)
GPGPU-Sim PTX: 12900000 instructions simulated : ctaid=(11,0,0) tid=(31,0,0)
GPGPU-Sim PTX: 13000000 instructions simulated : ctaid=(58,0,0) tid=(31,0,0)
GPGPU-Sim uArch: cycles simulated: 69000  inst.: 13006368 (ipc=188.5) sim_rate=224247 (inst/sec) elapsed = 0:0:00:58 / Tue Apr 16 16:56:24 2019
GPGPU-Sim PTX: 13100000 instructions simulated : ctaid=(25,0,0) tid=(63,0,0)
GPGPU-Sim PTX: 13200000 instructions simulated : ctaid=(55,0,0) tid=(63,0,0)
GPGPU-Sim uArch: cycles simulated: 70000  inst.: 13241248 (ipc=189.2) sim_rate=224427 (inst/sec) elapsed = 0:0:00:59 / Tue Apr 16 16:56:25 2019
GPGPU-Sim PTX: 13300000 instructions simulated : ctaid=(28,0,0) tid=(31,0,0)
GPGPU-Sim PTX: 13400000 instructions simulated : ctaid=(49,0,0) tid=(63,0,0)
GPGPU-Sim PTX: 13500000 instructions simulated : ctaid=(54,0,0) tid=(31,0,0)
GPGPU-Sim PTX: 13600000 instructions simulated : ctaid=(60,0,0) tid=(31,0,0)
GPGPU-Sim uArch: cycles simulated: 71500  inst.: 13595296 (ipc=190.1) sim_rate=226588 (inst/sec) elapsed = 0:0:01:00 / Tue Apr 16 16:56:26 2019
GPGPU-Sim PTX: 13700000 instructions simulated : ctaid=(39,0,0) tid=(63,0,0)
GPGPU-Sim PTX: 13800000 instructions simulated : ctaid=(61,0,0) tid=(31,0,0)
GPGPU-Sim uArch: cycles simulated: 72500  inst.: 13831616 (ipc=190.8) sim_rate=226747 (inst/sec) elapsed = 0:0:01:01 / Tue Apr 16 16:56:27 2019
GPGPU-Sim PTX: 13900000 instructions simulated : ctaid=(48,0,0) tid=(63,0,0)
GPGPU-Sim PTX: 14000000 instructions simulated : ctaid=(36,0,0) tid=(31,0,0)
GPGPU-Sim uArch: cycles simulated: 73500  inst.: 14065504 (ipc=191.4) sim_rate=226862 (inst/sec) elapsed = 0:0:01:02 / Tue Apr 16 16:56:28 2019
GPGPU-Sim PTX: 14100000 instructions simulated : ctaid=(20,0,0) tid=(63,0,0)
GPGPU-Sim PTX: 14200000 instructions simulated : ctaid=(49,0,0) tid=(63,0,0)
GPGPU-Sim PTX: 14300000 instructions simulated : ctaid=(25,0,0) tid=(31,0,0)
GPGPU-Sim uArch: cycles simulated: 74500  inst.: 14300448 (ipc=192.0) sim_rate=226991 (inst/sec) elapsed = 0:0:01:03 / Tue Apr 16 16:56:29 2019
GPGPU-Sim PTX: 14400000 instructions simulated : ctaid=(28,0,0) tid=(63,0,0)
GPGPU-Sim PTX: 14500000 instructions simulated : ctaid=(42,0,0) tid=(63,0,0)
GPGPU-Sim PTX: 14600000 instructions simulated : ctaid=(30,0,0) tid=(63,0,0)
GPGPU-Sim uArch: cycles simulated: 76000  inst.: 14650432 (ipc=192.8) sim_rate=228913 (inst/sec) elapsed = 0:0:01:04 / Tue Apr 16 16:56:30 2019
GPGPU-Sim PTX: 14700000 instructions simulated : ctaid=(58,0,0) tid=(31,0,0)
GPGPU-Sim PTX: 14800000 instructions simulated : ctaid=(57,0,0) tid=(63,0,0)
GPGPU-Sim PTX: 14900000 instructions simulated : ctaid=(57,0,0) tid=(63,0,0)
GPGPU-Sim uArch: cycles simulated: 77000  inst.: 14889472 (ipc=193.4) sim_rate=229068 (inst/sec) elapsed = 0:0:01:05 / Tue Apr 16 16:56:31 2019
GPGPU-Sim PTX: 15000000 instructions simulated : ctaid=(5,0,0) tid=(63,0,0)
GPGPU-Sim PTX: 15100000 instructions simulated : ctaid=(43,0,0) tid=(63,0,0)
GPGPU-Sim uArch: cycles simulated: 78000  inst.: 15125248 (ipc=193.9) sim_rate=229170 (inst/sec) elapsed = 0:0:01:06 / Tue Apr 16 16:56:32 2019
GPGPU-Sim PTX: 15200000 instructions simulated : ctaid=(62,0,0) tid=(63,0,0)
GPGPU-Sim PTX: 15300000 instructions simulated : ctaid=(30,0,0) tid=(31,0,0)
GPGPU-Sim uArch: cycles simulated: 79000  inst.: 15360416 (ipc=194.4) sim_rate=229259 (inst/sec) elapsed = 0:0:01:07 / Tue Apr 16 16:56:33 2019
GPGPU-Sim PTX: 15400000 instructions simulated : ctaid=(47,0,0) tid=(63,0,0)
GPGPU-Sim PTX: 15500000 instructions simulated : ctaid=(28,0,0) tid=(31,0,0)
GPGPU-Sim PTX: 15600000 instructions simulated : ctaid=(12,0,0) tid=(31,0,0)
GPGPU-Sim uArch: cycles simulated: 80000  inst.: 15601888 (ipc=195.0) sim_rate=229439 (inst/sec) elapsed = 0:0:01:08 / Tue Apr 16 16:56:34 2019
GPGPU-Sim PTX: 15700000 instructions simulated : ctaid=(58,0,0) tid=(63,0,0)
GPGPU-Sim PTX: 15800000 instructions simulated : ctaid=(17,0,0) tid=(31,0,0)
GPGPU-Sim PTX: 15900000 instructions simulated : ctaid=(34,0,0) tid=(31,0,0)
GPGPU-Sim uArch: cycles simulated: 81500  inst.: 15955840 (ipc=195.8) sim_rate=231244 (inst/sec) elapsed = 0:0:01:09 / Tue Apr 16 16:56:35 2019
GPGPU-Sim PTX: 16000000 instructions simulated : ctaid=(55,0,0) tid=(31,0,0)
GPGPU-Sim PTX: 16100000 instructions simulated : ctaid=(56,0,0) tid=(31,0,0)
GPGPU-Sim PTX: 16200000 instructions simulated : ctaid=(47,0,0) tid=(63,0,0)
GPGPU-Sim uArch: cycles simulated: 82500  inst.: 16195168 (ipc=196.3) sim_rate=231359 (inst/sec) elapsed = 0:0:01:10 / Tue Apr 16 16:56:36 2019
GPGPU-Sim PTX: 16300000 instructions simulated : ctaid=(53,0,0) tid=(31,0,0)
GPGPU-Sim PTX: 16400000 instructions simulated : ctaid=(0,0,0) tid=(31,0,0)
GPGPU-Sim uArch: cycles simulated: 83500  inst.: 16433696 (ipc=196.8) sim_rate=231460 (inst/sec) elapsed = 0:0:01:11 / Tue Apr 16 16:56:37 2019
GPGPU-Sim PTX: 16500000 instructions simulated : ctaid=(18,0,0) tid=(63,0,0)
GPGPU-Sim PTX: 16600000 instructions simulated : ctaid=(9,0,0) tid=(63,0,0)
GPGPU-Sim PTX: 16700000 instructions simulated : ctaid=(24,0,0) tid=(63,0,0)
GPGPU-Sim uArch: cycles simulated: 84500  inst.: 16669248 (ipc=197.3) sim_rate=231517 (inst/sec) elapsed = 0:0:01:12 / Tue Apr 16 16:56:38 2019
GPGPU-Sim PTX: 16800000 instructions simulated : ctaid=(31,0,0) tid=(31,0,0)
GPGPU-Sim PTX: 16900000 instructions simulated : ctaid=(5,0,0) tid=(31,0,0)
GPGPU-Sim PTX: 17000000 instructions simulated : ctaid=(14,0,0) tid=(31,0,0)
GPGPU-Sim uArch: cycles simulated: 86000  inst.: 17030944 (ipc=198.0) sim_rate=233300 (inst/sec) elapsed = 0:0:01:13 / Tue Apr 16 16:56:39 2019
GPGPU-Sim PTX: 17100000 instructions simulated : ctaid=(43,0,0) tid=(31,0,0)
GPGPU-Sim PTX: 17200000 instructions simulated : ctaid=(11,0,0) tid=(63,0,0)
GPGPU-Sim uArch: cycles simulated: 87000  inst.: 17266400 (ipc=198.5) sim_rate=233329 (inst/sec) elapsed = 0:0:01:14 / Tue Apr 16 16:56:40 2019
GPGPU-Sim PTX: 17300000 instructions simulated : ctaid=(60,0,0) tid=(63,0,0)
GPGPU-Sim PTX: 17400000 instructions simulated : ctaid=(14,0,0) tid=(63,0,0)
GPGPU-Sim PTX: 17500000 instructions simulated : ctaid=(56,0,0) tid=(31,0,0)
GPGPU-Sim uArch: cycles simulated: 88000  inst.: 17500640 (ipc=198.9) sim_rate=233341 (inst/sec) elapsed = 0:0:01:15 / Tue Apr 16 16:56:41 2019
GPGPU-Sim PTX: 17600000 instructions simulated : ctaid=(22,0,0) tid=(31,0,0)
GPGPU-Sim PTX: 17700000 instructions simulated : ctaid=(44,0,0) tid=(31,0,0)
GPGPU-Sim uArch: cycles simulated: 89000  inst.: 17741408 (ipc=199.3) sim_rate=233439 (inst/sec) elapsed = 0:0:01:16 / Tue Apr 16 16:56:42 2019
GPGPU-Sim PTX: 17800000 instructions simulated : ctaid=(49,0,0) tid=(63,0,0)
GPGPU-Sim PTX: 17900000 instructions simulated : ctaid=(13,0,0) tid=(63,0,0)
GPGPU-Sim PTX: 18000000 instructions simulated : ctaid=(8,0,0) tid=(63,0,0)
GPGPU-Sim PTX: 18100000 instructions simulated : ctaid=(55,0,0) tid=(31,0,0)
GPGPU-Sim uArch: cycles simulated: 90500  inst.: 18097248 (ipc=200.0) sim_rate=235029 (inst/sec) elapsed = 0:0:01:17 / Tue Apr 16 16:56:43 2019
GPGPU-Sim PTX: 18200000 instructions simulated : ctaid=(40,0,0) tid=(63,0,0)
GPGPU-Sim PTX: 18300000 instructions simulated : ctaid=(7,0,0) tid=(63,0,0)
GPGPU-Sim uArch: cycles simulated: 91500  inst.: 18332768 (ipc=200.4) sim_rate=235035 (inst/sec) elapsed = 0:0:01:18 / Tue Apr 16 16:56:44 2019
GPGPU-Sim PTX: 18400000 instructions simulated : ctaid=(37,0,0) tid=(31,0,0)
GPGPU-Sim PTX: 18500000 instructions simulated : ctaid=(54,0,0) tid=(31,0,0)
GPGPU-Sim PTX: 18600000 instructions simulated : ctaid=(26,0,0) tid=(31,0,0)
GPGPU-Sim uArch: cycles simulated: 92500  inst.: 18571296 (ipc=200.8) sim_rate=235079 (inst/sec) elapsed = 0:0:01:19 / Tue Apr 16 16:56:45 2019
GPGPU-Sim PTX: 18700000 instructions simulated : ctaid=(26,0,0) tid=(31,0,0)
GPGPU-Sim PTX: 18800000 instructions simulated : ctaid=(44,0,0) tid=(31,0,0)
GPGPU-Sim uArch: cycles simulated: 93500  inst.: 18813216 (ipc=201.2) sim_rate=235165 (inst/sec) elapsed = 0:0:01:20 / Tue Apr 16 16:56:46 2019
GPGPU-Sim PTX: 18900000 instructions simulated : ctaid=(16,0,0) tid=(31,0,0)
GPGPU-Sim PTX: 19000000 instructions simulated : ctaid=(56,0,0) tid=(63,0,0)
GPGPU-Sim PTX: 19100000 instructions simulated : ctaid=(46,0,0) tid=(31,0,0)
[...]
mf_lat_table:0 	0 	0 	0 	0 	0 	0 	144738 	1808217 	45600 	4045 	0 	0 	0 	0 	0 	0 	0 	0 	0 	0 	0 	0 	0 	0 	0 	0 	0 	0 	0 	0 	0 	
icnt2mem_lat_table:0 	0 	0 	2342403 	518086 	14442 	11968 	14345 	20538 	598 	0 	0 	0 	0 	0 	0 	0 	0 	0 	0 	0 	0 	0 	0 	
icnt2sh_lat_table:0 	0 	0 	1360352 	234583 	1696 	0 	0 	0 	0 	0 	1037 	2707 	5725 	10797 	275 	79 	133 	289 	865 	161547 	215311 	7204 	0 	
mf_lat_pw_table:0 	0 	0 	0 	0 	0 	0 	1383 	8801 	122 	2 	0 	0 	0 	0 	0 	0 	0 	0 	0 	0 	0 	0 	0 	0 	0 	0 	0 	0 	0 	0 	0 	
maximum concurrent accesses to same row:
dram[0]:        36        30        40        48        24        26        26        28        42        38        24        23        28        24        24        28 
dram[1]:        32        32        50        56        24        26        27        32        32        40        28        28        28        29        28        28 
dram[2]:        38        32        50        62        32        22        26        32        44        38        26        28        27        24        28        28 
dram[3]:        28        30        44        36        22        25        28        28        24        40        27        23        24        25        32        28 
dram[4]:        32        30        48        56        30        26        28        28        32        40        28        27        27        27        30        28 
dram[5]:        28        42        54        52        16        26        32        32        32        46        26        24        24        26        28        28 
maximum service time to same row:
dram[0]:     58903     42572     38694     33769     60847     29505     36852     33369     47734     37931     42553     25822     13544     17453     17312     20894 
dram[1]:     51503     35678     57228     69610     69340     32925     43677     34128     28584     79600     29638     35865     25809     26881     36526     21319 
dram[2]:     84307     37265     54894     53142     80734     85211     50479     32156     24659     34817     22185     18189     45146     14767     50251     24454 
dram[3]:     32119     39097     31032     30537     38620     64850     29463     20312     44395     43627     13214     13582     46822     13472     20281     19196 
dram[4]:     35082     36894     32120     29508     56266     62245     37228     44034     36856     37573     23494     26031     16816     31234     11322     27281 
dram[5]:     39669     30647     63983     47132     77920     28158     44974     50745     40291     33138     16171     33016     25866     25144     28875     47463 
average row accesses per activate:
dram[0]:  1.726656  1.733854  1.761652  1.778419  1.750688  1.755407  1.741211  1.742002  1.704636  1.728972  1.725554  1.708957  1.682704  1.690615  1.676445  1.686868 
dram[1]:  1.660796  1.685649  1.719364  1.721230  1.686075  1.712141  1.696295  1.701101  1.648826  1.670829  1.661727  1.641498  1.631873  1.636145  1.624520  1.624134 
dram[2]:  1.713025  1.693084  1.748897  1.760231  1.733383  1.736241  1.731478  1.716120  1.707556  1.686806  1.673647  1.685121  1.673547  1.652946  1.650459  1.663376 
dram[3]:  1.719645  1.739842  1.762750  1.770244  1.767925  1.731397  1.734841  1.749809  1.740902  1.701709  1.715240  1.697687  1.692858  1.676931  1.681961  1.670269 
dram[4]:  1.660264  1.702554  1.721472  1.730603  1.694137  1.701955  1.679088  1.706034  1.658304  1.685557  1.666095  1.633729  1.628039  1.652014  1.635817  1.617925 
dram[5]:  1.692928  1.721321  1.749332  1.762132  1.715723  1.736237  1.717408  1.712810  1.667393  1.695763  1.676399  1.665328  1.663689  1.664684  1.645659  1.642111 
average row locality = 3252263/1918096 = 1.695568
number of total memory accesses made:
dram[0]:         0         0         0         0         0         0         0         0         0         0         0         0         0         0         0         0 
dram[1]:         0         0         0         0         0         0         0         0         0         0         0         0         0         0         0         0 
dram[2]:         0         0         0         0         0         0         0         0         0         0         0         0         0         0         0         0 
dram[3]:         0         0         0         0         0         0         0         0         0         0         0         0         0         0         0         0 
dram[4]:         0         0         0         0         0         0         0         0         0         0         0         0         0         0         0         0 
dram[5]:         0         0         0         0         0         0         0         0         0         0         0         0         0         0         0         0 
total accesses: 0
min_bank_accesses = 0!
min_chip_accesses = 0!
number of total read accesses:
dram[0]:     19780     19722     19505     19159     19494     20884     20715     20020     20651     20838     20999     21568     22072     21044     21369     21970 
dram[1]:     19905     19904     19756     19480     19536     20879     20959     20293     20661     21094     21328     21547     21981     21338     21774     22351 
dram[2]:     21271     20009     20071     20159     20593     21429     21765     20722     21497     21653     21818     22199     23053     21633     22109     23265 
dram[3]:     20296     18965     18956     19820     20072     19885     20525     19984     20468     20964     21781     20633     21422     21062     21651     22016 
dram[4]:     20291     19772     19392     20188     20102     20552     20984     20603     20500     21689     22116     20897     21709     22069     21996     22169 
dram[5]:     20875     20226     19730     20822     20881     20744     21345     21074     20729     22110     22620     21223     21983     22687     22597     22751 
total reads: 2011748
bank skew: 23265/18956 = 1.23
chip skew: 343246/328500 = 1.04
number of total write accesses:
dram[0]:     12025     11796     11715     11332     11698     12718     12765     11998     12811     12915     12953     13387     14091     13147     13377     14075 
dram[1]:     12253     12034     11925     11645     11970     12768     12972     12295     13041     13163     13211     13650     14289     13435     13738     14447 
dram[2]:     12712     12014     12044     11886     12187     13051     13268     12418     13081     13441     13588     13839     14488     13664     13871     14645 
dram[3]:     12250     11350     11321     12032     12106     12132     12692     12146     12348     13385     13649     12769     13373     13466     13576     14152 
dram[4]:     12471     11698     11579     12221     12378     12437     12947     12419     12681     13615     13860     13096     13779     13859     13884     14333 
dram[5]:     12689     11930     11688     12477     12706     12465     13077     12742     12929     13830     14125     13196     13773     14254     14274     14520 
total reads: 1240515
bank skew: 14645/11321 = 1.29
chip skew: 210675/202747 = 1.04
average mf latency per bank:
dram[0]:        180       179       182       183       183       179       181       181       178       179       178       177       178       178       178       178
dram[1]:        179       177       180       182       184       179       179       179       179       178       177       178       178       178       176       176
dram[2]:        178       182       183       182       183       181       180       182       179       179       180       179       177       181       179       177
dram[3]:        177       182       183       181       182       183       180       182       178       180       177       179       178       181       178       177
dram[4]:        179       178       182       180       184       179       180       180       180       177       177       180       178       177       178       178
dram[5]:        179       180       184       182       184       182       181       181       183       178       178       181       180       179       179       179
maximum mf latency per bank:
dram[0]:       1270      1305      1383      1571      1481      1366      1232      1584      1276      1414      1344      1237      1267      1226      1276      1238
dram[1]:       1370      1224      1581      1548      1583      1307      1520      1374      1284      1357      1485      1333      1291      1191      1343      1621
dram[2]:       1431      1245      1245      1673      1652      1363      1306      1373      1505      1355      1665      1444      1268      1335      1388      1411
dram[3]:       1255      1534      1653      1404      1333      1399      1310      1475      1316      1354      1423      1246      1348      1334      1295      1211
dram[4]:       1446      1346      1606      1505      1574      1302      1516      1390      1543      1276      1387      1396      1360      1428      1338      1360
dram[5]:       1276      1251      1455      1691      1409      1319      1329      1493      1190      1261      1305      1289      1435      1586      1260      1291

Number of Memory Banks Accessed per Memory Operation per Warp (from 0):
0	0	0	0	0	0	0	0	0	0	0	0	0	0	0	0	0	0	0	0	0	0	0	0	0	0	0	0	0	0	0	0	0	0	0	0	0	0	0	0	0	0	0	0	0	0	0	0	0	0	0	0	0	0	0	0	0	0	0	0	0	0	0	0	0	0	0	0	0	0	0	0	0	0	0	0	0	0	0	0	0	0	0	0	0	0	0	0	0	0	0	0	0	0	0	0	
Average # of Memory Banks Accessed per Memory Operation per Warp=-nan

position of mrq chosen
0	0	0	0	0	0	0	0	0	0	0	0	0	0	0	0	

average position of mrq chosen = -nan
Memory Partition 0: 
Cache L2_bank_000:
MSHR contents
MSHR: tag=0x80007c80, atomic=0 1 entries : 0x7ff7975a4730 :  mf: uid=23977531, sid05:w09, part=0, addr=0x80007c80, load , size=128, unknown  status = IN_PARTITION_DRAM (5156720), 

Cache L2_bank_001:
MSHR contents

In Dram Latency Queue (total = 0): 
DRAM[0]: 16 bks, busW=4 BL=8 CL=12, tRRD=2 tCCD=6, tRCD=12 tRAS=28 tRP=12 tRC=40
n_cmd=6806873 n_nop=5123455 n_act=309124 n_pre=309108 n_req=532593 n_rd=659580 n_write=405606 bw_util=0.313
n_activity=5809639 dram_eff=0.3667
bk0: 39560a 5802467i bk1: 39444a 5810024i bk2: 39010a 5825062i bk3: 38318a 5847310i bk4: 38988a 5817391i bk5: 41768a 5741037i bk6: 41430a 5732934i bk7: 40040a 5763919i bk8: 41302a 5765880i bk9: 41676a 5752125i bk10: 41998a 5731499i bk11: 43136a 5686473i bk12: 44144a 5631242i bk13: 42088a 5686854i bk14: 42738a 5655216i bk15: 43940a 5606695i 
dram_util_bins: 0 0 0 0 0 0 0 0 0 0
dram_eff_bins: 0 0 0 0 0 0 0 0 0 0
mrqq: max=16 avg=1.55038
Memory Partition 1: 
Cache L2_bank_002:
MSHR contents

Cache L2_bank_003:
MSHR contents

In Dram Latency Queue (total = 0): 
DRAM[1]: 16 bks, busW=4 BL=8 CL=12, tRRD=2 tCCD=6, tRCD=12 tRAS=28 tRP=12 tRC=40
n_cmd=6806873 n_nop=5080677 n_act=323484 n_pre=323468 n_req=539622 n_rd=665572 n_write=413672 bw_util=0.3171
n_activity=5908623 dram_eff=0.3653
bk0: 39810a 5773070i bk1: 39808a 5783103i bk2: 39512a 5796770i bk3: 38960a 5813134i bk4: 39072a 5787764i bk5: 41758a 5714950i bk6: 41918a 5697837i bk7: 40586a 5735698i bk8: 41322a 5741170i bk9: 42188a 5715442i bk10: 42656a 5694171i bk11: 43094a 5660873i bk12: 43962a 5613760i bk13: 42676a 5647816i bk14: 43548a 5616500i bk15: 44702a 5569844i 
dram_util_bins: 0 0 0 0 0 0 0 0 0 0
dram_eff_bins: 0 0 0 0 0 0 0 0 0 0
mrqq: max=16 avg=1.50729
Memory Partition 2: 
Cache L2_bank_004:
MSHR contents

Cache L2_bank_005:
MSHR contents

In Dram Latency Queue (total = 0): 
DRAM[2]: 16 bks, busW=4 BL=8 CL=12, tRRD=2 tCCD=6, tRCD=12 tRAS=28 tRP=12 tRC=40
n_cmd=6806873 n_nop=5048787 n_act=325608 n_pre=325592 n_req=553443 n_rd=686492 n_write=420394 bw_util=0.3252
n_activity=5868280 dram_eff=0.3772
bk0: 42542a 5711470i bk1: 40018a 5764160i bk2: 40142a 5771351i bk3: 40318a 5765792i bk4: 41186a 5732701i bk5: 42858a 5683181i bk6: 43530a 5646382i bk7: 41444a 5699199i bk8: 42994a 5704949i bk9: 43306a 5679554i bk10: 43636a 5650115i bk11: 44398a 5622188i bk12: 46106a 5561890i bk13: 43266a 5621949i bk14: 44218a 5586417i bk15: 46530a 5510995i 
dram_util_bins: 0 0 0 0 0 0 0 0 0 0
dram_eff_bins: 0 0 0 0 0 0 0 0 0 0
mrqq: max=16 avg=1.65809
Memory Partition 3: 
Cache L2_bank_006:
MSHR contents

Cache L2_bank_007:
MSHR contents

In Dram Latency Queue (total = 0): 
DRAM[3]: 16 bks, busW=4 BL=8 CL=12, tRRD=2 tCCD=6, tRCD=12 tRAS=28 tRP=12 tRC=40
n_cmd=6806873 n_nop=5126737 n_act=308829 n_pre=308813 n_req=531247 n_rd=657000 n_write=405494 bw_util=0.3122
n_activity=5801433 dram_eff=0.3663
bk0: 40592a 5772084i bk1: 37930a 5847001i bk2: 37912a 5855118i bk3: 39640a 5805187i bk4: 40144a 5792287i bk5: 39770a 5777999i bk6: 41050a 5736980i bk7: 39968a 5767670i bk8: 40936a 5788528i bk9: 41928a 5732143i bk10: 43562a 5683616i bk11: 41266a 5734905i bk12: 42844a 5675603i bk13: 42124a 5676656i bk14: 43302a 5642101i bk15: 44032a 5601388i 
dram_util_bins: 0 0 0 0 0 0 0 0 0 0
dram_eff_bins: 0 0 0 0 0 0 0 0 0 0
mrqq: max=16 avg=1.53416
Memory Partition 4: 
Cache L2_bank_008:
MSHR contents

Cache L2_bank_009:
MSHR contents

In Dram Latency Queue (total = 0): 
DRAM[4]: 16 bks, busW=4 BL=8 CL=12, tRRD=2 tCCD=6, tRCD=12 tRAS=28 tRP=12 tRC=40
n_cmd=6806873 n_nop=5073419 n_act=324449 n_pre=324433 n_req=542286 n_rd=670058 n_write=414514 bw_util=0.3187
n_activity=5914187 dram_eff=0.3668
bk0: 40582a 5751731i bk1: 39544a 5798541i bk2: 38784a 5817793i bk3: 40376a 5776421i bk4: 40204a 5756041i bk5: 41104a 5734426i bk6: 41968a 5688517i bk7: 41206a 5718305i bk8: 41000a 5751787i bk9: 43378a 5686530i bk10: 44232a 5642815i bk11: 41794a 5691787i bk12: 43418a 5630170i bk13: 44138a 5616156i bk14: 43992a 5599999i bk15: 44338a 5571029i 
dram_util_bins: 0 0 0 0 0 0 0 0 0 0
dram_eff_bins: 0 0 0 0 0 0 0 0 0 0
mrqq: max=16 avg=1.53643
Memory Partition 5: 
Cache L2_bank_010:
MSHR contents

Cache L2_bank_011:
MSHR contents

In Dram Latency Queue (total = 0): 
DRAM[5]: 16 bks, busW=4 BL=8 CL=12, tRRD=2 tCCD=6, tRCD=12 tRAS=28 tRP=12 tRC=40
n_cmd=6806873 n_nop=5047535 n_act=326605 n_pre=326589 n_req=553072 n_rd=684794 n_write=421350 bw_util=0.325
n_activity=5874840 dram_eff=0.3766
bk0: 41750a 5718773i bk1: 40452a 5769534i bk2: 39460a 5795893i bk3: 41644a 5732627i bk4: 41762a 5707632i bk5: 41488a 5717427i bk6: 42690a 5671819i bk7: 42148a 5676506i bk8: 41458a 5728937i bk9: 44220a 5649797i bk10: 45240a 5603252i bk11: 42446a 5669920i bk12: 43966a 5618600i bk13: 45374a 5563889i bk14: 45194a 5558276i bk15: 45502a 5528809i 
dram_util_bins: 0 0 0 0 0 0 0 0 0 0
dram_eff_bins: 0 0 0 0 0 0 0 0 0 0
mrqq: max=16 avg=1.64729

========= L2 cache stats =========
L2_cache_bank[0]: Access = 239878, Miss = 164585, Miss_rate = 0.686, Pending_hits = 7, Reservation_fails = 121
L2_cache_bank[1]: Access = 239581, Miss = 165205, Miss_rate = 0.690, Pending_hits = 16, Reservation_fails = 464
L2_cache_bank[2]: Access = 242145, Miss = 165900, Miss_rate = 0.685, Pending_hits = 9, Reservation_fails = 108
L2_cache_bank[3]: Access = 242025, Miss = 166886, Miss_rate = 0.690, Pending_hits = 17, Reservation_fails = 448
L2_cache_bank[4]: Access = 248875, Miss = 172177, Miss_rate = 0.692, Pending_hits = 10, Reservation_fails = 120
L2_cache_bank[5]: Access = 248191, Miss = 171069, Miss_rate = 0.689, Pending_hits = 6, Reservation_fails = 30
L2_cache_bank[6]: Access = 239751, Miss = 165171, Miss_rate = 0.689, Pending_hits = 3, Reservation_fails = 154
L2_cache_bank[7]: Access = 239776, Miss = 163329, Miss_rate = 0.681, Pending_hits = 15, Reservation_fails = 669
L2_cache_bank[8]: Access = 242303, Miss = 167090, Miss_rate = 0.690, Pending_hits = 5, Reservation_fails = 43
L2_cache_bank[9]: Access = 242381, Miss = 167939, Miss_rate = 0.693, Pending_hits = 1, Reservation_fails = 19
L2_cache_bank[10]: Access = 248677, Miss = 170760, Miss_rate = 0.687, Pending_hits = 4, Reservation_fails = 147
L2_cache_bank[11]: Access = 248797, Miss = 171637, Miss_rate = 0.690, Pending_hits = 5, Reservation_fails = 43
L2_total_cache_accesses = 2922380
L2_total_cache_misses = 2011748
L2_total_cache_miss_rate = 0.6884
L2_total_cache_pending_hits = 98
L2_total_cache_reservation_fails = 2366
L2_total_cache_breakdown:
	L2_cache_stats_breakdown[LOCAL_ACC_R][HIT] = 107921
	L2_cache_stats_breakdown[LOCAL_ACC_R][HIT_RESERVED] = 40
	L2_cache_stats_breakdown[LOCAL_ACC_R][MISS] = 1488520
	L2_cache_stats_breakdown[LOCAL_ACC_R][RESERVATION_FAIL] = 35
	L2_cache_stats_breakdown[CONST_ACC_R][HIT] = 129
	L2_cache_stats_breakdown[CONST_ACC_R][HIT_RESERVED] = 12
	L2_cache_stats_breakdown[CONST_ACC_R][MISS] = 9
	L2_cache_stats_breakdown[CONST_ACC_R][RESERVATION_FAIL] = 308
	L2_cache_stats_breakdown[GLOBAL_ACC_W][MISS] = 384
	L2_cache_stats_breakdown[LOCAL_ACC_W][HIT] = 19068
	L2_cache_stats_breakdown[LOCAL_ACC_W][MISS] = 386517
	L2_cache_stats_breakdown[LOCAL_ACC_W][RESERVATION_FAIL] = 692
	L2_cache_stats_breakdown[L1_WRBK_ACC][HIT] = 782935
	L2_cache_stats_breakdown[L1_WRBK_ACC][MISS] = 136245
	L2_cache_stats_breakdown[L1_WRBK_ACC][RESERVATION_FAIL] = 7
	L2_cache_stats_breakdown[INST_ACC_R][HIT] = 481
	L2_cache_stats_breakdown[INST_ACC_R][HIT_RESERVED] = 46
	L2_cache_stats_breakdown[INST_ACC_R][MISS] = 73
	L2_cache_stats_breakdown[INST_ACC_R][RESERVATION_FAIL] = 1324
L2_cache_data_port_util = 0.096
L2_cache_fill_port_util = 0.130

icnt_total_pkts_mem_to_simt=8391824
icnt_total_pkts_simt_to_mem=8222976
LD_mem_lat_dist  0 0 0 0 0 0 0 0 0 0 0 0 0 0 0 0 0 0 0 0 0 0 0 0 0 0 0
ST_mem_lat_dist  0 0 0 0 0 0 0 0 0 0 0 0 0 0 0 0 0 0 0 0 0 0 0 0 0 0 0
----------------------------Interconnect-DETAILS--------------------------------
Class 0:
Packet latency average = 10.495
	minimum = 6
	maximum = 422
Network latency average = 9.95964
	minimum = 6
	maximum = 417
Slowest packet = 1010084
Flit latency average = 7.83537
	minimum = 6
	maximum = 413
Slowest flit = 3634592
Fragmentation average = 0.0179558
	minimum = 0
	maximum = 382
Injected packet rate average = 0.0392005
	minimum = 0.0365113 (at node 16)
	maximum = 0.0478944 (at node 5)
Accepted packet rate average = 0.0392005
	minimum = 0.0277734 (at node 14)
	maximum = 0.052728 (at node 19)
Injected flit rate average = 0.129961
	minimum = 0.105103 (at node 13)
	maximum = 0.157168 (at node 19)
Accepted flit rate average= 0.129961
	minimum = 0.113978 (at node 0)
	maximum = 0.144868 (at node 19)
Injected packet length average = 3.31527
Accepted packet length average = 3.31527
Total in-flight flits = 0 (0 measured)
====== Overall Traffic Statistics ======
====== Traffic class 0 ======
Packet latency average = 10.6994 (2 samples)
	minimum = 6 (2 samples)
	maximum = 465.5 (2 samples)
Network latency average = 10.1567 (2 samples)
	minimum = 6 (2 samples)
	maximum = 446 (2 samples)
Flit latency average = 7.8935 (2 samples)
	minimum = 6 (2 samples)
	maximum = 442 (2 samples)
Fragmentation average = 0.0408582 (2 samples)
	minimum = 0 (2 samples)
	maximum = 384.5 (2 samples)
Injected packet rate average = 0.0324314 (2 samples)
	minimum = 0.0281704 (2 samples)
	maximum = 0.0415716 (2 samples)
Accepted packet rate average = 0.0324314 (2 samples)
	minimum = 0.021423 (2 samples)
	maximum = 0.0457689 (2 samples)
Injected flit rate average = 0.111145 (2 samples)
	minimum = 0.0951292 (2 samples)
	maximum = 0.132201 (2 samples)
Accepted flit rate average = 0.111145 (2 samples)
	minimum = 0.0918968 (2 samples)
	maximum = 0.13146 (2 samples)
Injected packet size average = 3.42707 (2 samples)
Accepted packet size average = 3.42707 (2 samples)
Hops average = 1 (2 samples)
----------------------------END-of-Interconnect-DETAILS-------------------------


gpgpu_simulation_time = 0 days, 1 hrs, 1 min, 13 sec (3673 sec)
gpgpu_simulation_rate = 272018 (inst/sec)
gpgpu_simulation_rate = 1403 (cycle/sec)
GPGPU-Sim: synchronize waiting for inactive GPU simulation
GPGPU-Sim API: Stream Manager State
GPGPU-Sim: detected inactive GPU simulation thread
v  =    224.32334900
Lb =     21.34812355
Time (Greeks)   : 2561902.750000 msec

Press ENTER to exit...
