

        *** GPGPU-Sim Simulator Version 3.2.2  [build 0] ***


GPGPU-Sim PTX: simulation mode 0 (can change with PTX_SIM_MODE_FUNC environment variable:
               1=functional simulation only, 0=detailed performance simulator)
GPGPU-Sim: Configuration options:

-network_mode                           1 # Interconnection network mode
-inter_config_file   config_fermi_islip.icnt # Interconnection network config file
-gpgpu_ptx_use_cuobjdump                    1 # Use cuobjdump to extract ptx and sass from binaries
-gpgpu_experimental_lib_support                    0 # Try to extract code from cuda libraries [Broken because of unknown cudaGetExportTable]
-gpgpu_ptx_convert_to_ptxplus                    0 # Convert SASS (native ISA) to ptxplus and run ptxplus
-gpgpu_ptx_force_max_capability                   20 # Force maximum compute capability
-gpgpu_ptx_inst_debug_to_file                    0 # Dump executed instructions' debug information to file
-gpgpu_ptx_inst_debug_file       inst_debug.txt # Executed instructions' debug output file
-gpgpu_ptx_inst_debug_thread_uid                    1 # Thread UID for executed instructions' debug output
-gpgpu_simd_model                       1 # 1 = post-dominator
-gpgpu_shader_core_pipeline              1536:32 # shader core pipeline config, i.e., {<nthread>:<warpsize>}
-gpgpu_tex_cache:l1  4:128:24,L:R:m:N:L,F:128:4,128:2 # per-shader L1 texture cache  (READ-ONLY) config  {<nsets>:<bsize>:<assoc>,<rep>:<wr>:<alloc>:<wr_alloc>,<mshr>:<N>:<merge>,<mq>:<rf>}
-gpgpu_const_cache:l1 64:64:2,L:R:f:N:L,A:2:32,4 # per-shader L1 constant memory cache  (READ-ONLY) config  {<nsets>:<bsize>:<assoc>,<rep>:<wr>:<alloc>:<wr_alloc>,<mshr>:<N>:<merge>,<mq>} 
-gpgpu_cache:il1     4:128:4,L:R:f:N:L,A:2:32,4 # shader L1 instruction cache config  {<nsets>:<bsize>:<assoc>,<rep>:<wr>:<alloc>:<wr_alloc>,<mshr>:<N>:<merge>,<mq>} 
-gpgpu_cache:dl1     32:128:4,L:L:m:N:H,A:32:8,8 # per-shader L1 data cache config  {<nsets>:<bsize>:<assoc>,<rep>:<wr>:<alloc>:<wr_alloc>,<mshr>:<N>:<merge>,<mq> | none}
-gpgpu_cache:dl1PrefL1                 none # per-shader L1 data cache config  {<nsets>:<bsize>:<assoc>,<rep>:<wr>:<alloc>:<wr_alloc>,<mshr>:<N>:<merge>,<mq> | none}
-gpgpu_cache:dl1PreShared                 none # per-shader L1 data cache config  {<nsets>:<bsize>:<assoc>,<rep>:<wr>:<alloc>:<wr_alloc>,<mshr>:<N>:<merge>,<mq> | none}
-gmem_skip_L1D                          0 # global memory access skip L1D cache (implements -Xptxas -dlcm=cg, default=no skip)
-gpgpu_perfect_mem                      0 # enable perfect memory mode (no cache miss)
-n_regfile_gating_group                    4 # group of lanes that should be read/written together)
-gpgpu_clock_gated_reg_file                    0 # enable clock gated reg file for power calculations
-gpgpu_clock_gated_lanes                    0 # enable clock gated lanes for power calculations
-gpgpu_shader_registers                32768 # Number of registers per shader core. Limits number of concurrent CTAs. (default 8192)
-gpgpu_shader_cta                       8 # Maximum number of concurrent CTAs in shader (default 8)
-gpgpu_num_cta_barriers                   16 # Maximum number of named barriers per CTA (default 16)
-gpgpu_n_clusters                      15 # number of processing clusters
-gpgpu_n_cores_per_cluster                    1 # number of simd cores per cluster
-gpgpu_n_cluster_ejection_buffer_size                    8 # number of packets in ejection buffer
-gpgpu_n_ldst_response_buffer_size                    2 # number of response packets in ld/st unit ejection buffer
-gpgpu_shmem_size                   16384 # Size of shared memory per shader core (default 16kB)
-gpgpu_shmem_size                   49152 # Size of shared memory per shader core (default 16kB)
-gpgpu_shmem_size_PrefL1                16384 # Size of shared memory per shader core (default 16kB)
-gpgpu_shmem_size_PrefShared                16384 # Size of shared memory per shader core (default 16kB)
-gpgpu_shmem_num_banks                   32 # Number of banks in the shared memory in each shader core (default 16)
-gpgpu_shmem_limited_broadcast                    0 # Limit shared memory to do one broadcast per cycle (default on)
-gpgpu_shmem_warp_parts                    1 # Number of portions a warp is divided into for shared memory bank conflict check 
-gpgpu_warpdistro_shader                   -1 # Specify which shader core to collect the warp size distribution from
-gpgpu_warp_issue_shader                    0 # Specify which shader core to collect the warp issue distribution from
-gpgpu_local_mem_map                    1 # Mapping from local memory space address to simulated GPU physical address space (default = enabled)
-gpgpu_num_reg_banks                   16 # Number of register banks (default = 8)
-gpgpu_reg_bank_use_warp_id                    0 # Use warp ID in mapping registers to banks (default = off)
-gpgpu_operand_collector_num_units_sp                    6 # number of collector units (default = 4)
-gpgpu_operand_collector_num_units_sfu                    8 # number of collector units (default = 4)
-gpgpu_operand_collector_num_units_mem                    2 # number of collector units (default = 2)
-gpgpu_operand_collector_num_units_gen                    0 # number of collector units (default = 0)
-gpgpu_operand_collector_num_in_ports_sp                    2 # number of collector unit in ports (default = 1)
-gpgpu_operand_collector_num_in_ports_sfu                    1 # number of collector unit in ports (default = 1)
-gpgpu_operand_collector_num_in_ports_mem                    1 # number of collector unit in ports (default = 1)
-gpgpu_operand_collector_num_in_ports_gen                    0 # number of collector unit in ports (default = 0)
-gpgpu_operand_collector_num_out_ports_sp                    2 # number of collector unit in ports (default = 1)
-gpgpu_operand_collector_num_out_ports_sfu                    1 # number of collector unit in ports (default = 1)
-gpgpu_operand_collector_num_out_ports_mem                    1 # number of collector unit in ports (default = 1)
-gpgpu_operand_collector_num_out_ports_gen                    0 # number of collector unit in ports (default = 0)
-gpgpu_coalesce_arch                   13 # Coalescing arch (default = 13, anything else is off for now)
-gpgpu_num_sched_per_core                    2 # Number of warp schedulers per core
-gpgpu_max_insn_issue_per_warp                    1 # Max number of instructions that can be issued per warp in one cycle by scheduler
-gpgpu_simt_core_sim_order                    1 # Select the simulation order of cores in a cluster (0=Fix, 1=Round-Robin)
-gpgpu_pipeline_widths        2,1,1,2,1,1,2 # Pipeline widths ID_OC_SP,ID_OC_SFU,ID_OC_MEM,OC_EX_SP,OC_EX_SFU,OC_EX_MEM,EX_WB
-gpgpu_num_sp_units                     2 # Number of SP units (default=1)
-gpgpu_num_sfu_units                    1 # Number of SF units (default=1)
-gpgpu_num_mem_units                    1 # Number if ldst units (default=1) WARNING: not hooked up to anything
-gpgpu_scheduler                      gto # Scheduler configuration: < lrr | gto | two_level_active > If two_level_active:<num_active_warps>:<inner_prioritization>:<outer_prioritization>For complete list of prioritization values see shader.h enum scheduler_prioritization_typeDefault: gto
-gpgpu_dram_scheduler                    1 # 0 = fifo, 1 = FR-FCFS (defaul)
-gpgpu_dram_partition_queues              8:8:8:8 # i2$:$2d:d2$:$2i
-l2_ideal                               0 # Use a ideal L2 cache that always hit
-gpgpu_cache:dl2     64:128:8,L:B:m:W:L,A:32:4,4:0,32 # unified banked L2 data cache config  {<nsets>:<bsize>:<assoc>,<rep>:<wr>:<alloc>:<wr_alloc>,<mshr>:<N>:<merge>,<mq>}
-gpgpu_cache:dl2_texture_only                    0 # L2 cache used for texture only
-gpgpu_n_mem                            6 # number of memory modules (e.g. memory controllers) in gpu
-gpgpu_n_sub_partition_per_mchannel                    2 # number of memory subpartition in each memory module
-gpgpu_n_mem_per_ctrlr                    2 # number of memory chips per memory controller
-gpgpu_memlatency_stat                   14 # track and display latency statistics 0x2 enables MC, 0x4 enables queue logs
-gpgpu_frfcfs_dram_sched_queue_size                   16 # 0 = unlimited (default); # entries per chip
-gpgpu_dram_return_queue_size                  116 # 0 = unlimited (default); # entries per chip
-gpgpu_dram_buswidth                    4 # default = 4 bytes (8 bytes per cycle at DDR)
-gpgpu_dram_burst_length                    8 # Burst length of each DRAM request (default = 4 data bus cycle)
-dram_data_command_freq_ratio                    4 # Frequency ratio between DRAM data bus and command bus (default = 2 times, i.e. DDR)
-gpgpu_dram_timing_opt nbk=16:CCD=2:RRD=6:RCD=12:RAS=28:RP=12:RC=40: CL=12:WL=4:CDLR=5:WR=12:nbkgrp=4:CCDL=3:RTPL=2 # DRAM timing parameters = {nbk:tCCD:tRRD:tRCD:tRAS:tRP:tRC:CL:WL:tCDLR:tWR:nbkgrp:tCCDL:tRTPL}
-rop_latency                          120 # ROP queue latency (default 85)
-dram_latency                         100 # DRAM latency (default 30)
-gpgpu_mem_addr_mapping dramid@8;00000000.00000000.00000000.00000000.0000RRRR.RRRRRRRR.BBBCCCCB.CCSSSSSS # mapping memory address to dram model {dramid@<start bit>;<memory address map>}
-gpgpu_mem_addr_test                    0 # run sweep test to check address mapping for aliased address
-gpgpu_mem_address_mask                    1 # 0 = old addressing mask, 1 = new addressing mask, 2 = new add. mask + flipped bank sel and chip sel bits
-gpuwattch_xml_file  gpuwattch_gtx480.xml # GPUWattch XML file
-power_simulation_enabled                    1 # Turn on power simulator (1=On, 0=Off)
-power_per_cycle_dump                    0 # Dump detailed power output each cycle
-power_trace_enabled                    0 # produce a file for the power trace (1=On, 0=Off)
-power_trace_zlevel                     6 # Compression level of the power trace output log (0=no comp, 9=highest)
-steady_power_levels_enabled                    0 # produce a file for the steady power levels (1=On, 0=Off)
-steady_state_definition                  8:4 # allowed deviation:number of samples
-gpgpu_max_cycle                        0 # terminates gpu simulation early (0 = no limit)
-gpgpu_max_insn                         0 # terminates gpu simulation early (0 = no limit)
-gpgpu_max_cta                          0 # terminates gpu simulation early (0 = no limit)
-gpgpu_runtime_stat                   500 # display runtime statistics such as dram utilization {<freq>:<flag>}
-liveness_message_freq                    1 # Minimum number of seconds between simulation liveness messages (0 = always print)
-gpgpu_flush_l1_cache                    0 # Flush L1 cache at the end of each kernel call
-gpgpu_flush_l2_cache                    0 # Flush L2 cache at the end of each kernel call
-gpgpu_deadlock_detect                    1 # Stop the simulation at deadlock (1=on (default), 0=off)
-gpgpu_ptx_instruction_classification                    0 # if enabled will classify ptx instruction types per kernel (Max 255 kernels now)
-gpgpu_ptx_sim_mode                     0 # Select between Performance (default) or Functional simulation (1)
-gpgpu_clock_domains 700.0:700.0:700.0:924.0 # Clock Domain Frequencies in MhZ {<Core Clock>:<ICNT Clock>:<L2 Clock>:<DRAM Clock>}
-gpgpu_max_concurrent_kernel                    8 # maximum kernels that can run concurrently on GPU
-gpgpu_cflog_interval                    0 # Interval between each snapshot in control flow logger
-visualizer_enabled                     0 # Turn on visualizer output (1=On, 0=Off)
-visualizer_outputfile                 NULL # Specifies the output log file for visualizer
-visualizer_zlevel                      6 # Compression level of the visualizer output log (0=no comp, 9=highest)
-trace_enabled                          0 # Turn on traces
-trace_components                    none # comma seperated list of traces to enable. Complete list found in trace_streams.tup. Default none
-trace_sampling_core                    0 # The core which is printed using CORE_DPRINTF. Default 0
-trace_sampling_memory_partition                   -1 # The memory partition which is printed using MEMPART_DPRINTF. Default -1 (i.e. all)
-enable_ptx_file_line_stats                    1 # Turn on PTX source line statistic profiling. (1 = On)
-ptx_line_stats_filename gpgpu_inst_stats.txt # Output file for PTX source line statistics.
-save_embedded_ptx                      0 # saves ptx files embedded in binary as <n>.ptx
-keep                                   0 # keep intermediate files created by GPGPU-Sim when interfacing with external programs
-gpgpu_ptx_save_converted_ptxplus                    0 # Saved converted ptxplus to a file
-ptx_opcode_latency_int         4,13,4,5,145 # Opcode latencies for integers <ADD,MAX,MUL,MAD,DIV>Default 1,1,19,25,145
-ptx_opcode_latency_fp          4,13,4,5,39 # Opcode latencies for single precision floating points <ADD,MAX,MUL,MAD,DIV>Default 1,1,1,1,30
-ptx_opcode_latency_dp         8,19,8,8,330 # Opcode latencies for double precision floating points <ADD,MAX,MUL,MAD,DIV>Default 8,8,8,8,335
-ptx_opcode_initiation_int            1,2,2,1,8 # Opcode initiation intervals for integers <ADD,MAX,MUL,MAD,DIV>Default 1,1,4,4,32
-ptx_opcode_initiation_fp            1,2,1,1,4 # Opcode initiation intervals for single precision floating points <ADD,MAX,MUL,MAD,DIV>Default 1,1,1,1,5
-ptx_opcode_initiation_dp         8,16,8,8,130 # Opcode initiation intervals for double precision floating points <ADD,MAX,MUL,MAD,DIV>Default 8,8,8,8,130
DRAM Timing Options:
nbk                                    16 # number of banks
CCD                                     2 # column to column delay
RRD                                     6 # minimal delay between activation of rows in different banks
RCD                                    12 # row to column delay
RAS                                    28 # time needed to activate row
RP                                     12 # time needed to precharge (deactivate) row
RC                                     40 # row cycle time
CDLR                                    5 # switching from write to read (changes tWTR)
WR                                     12 # last data-in to row precharge
CL                                     12 # CAS latency
WL                                      4 # Write latency
nbkgrp                                  4 # number of bank groups
CCDL                                    3 # column to column delay between accesses to different bank groups
RTPL                                    2 # read to precharge delay between accesses to different bank groups
Total number of memory sub partition = 12
addr_dec_mask[CHIP]  = 0000000000000000 	high:64 low:0
addr_dec_mask[BK]    = 000000000000e100 	high:16 low:8
addr_dec_mask[ROW]   = 000000000fff0000 	high:28 low:16
addr_dec_mask[COL]   = 0000000000001eff 	high:13 low:0
addr_dec_mask[BURST] = 000000000000003f 	high:6 low:0
sub_partition_id_mask = 0000000000000100
GPGPU-Sim uArch: clock freqs: 700000000.000000:700000000.000000:700000000.000000:924000000.000000
GPGPU-Sim uArch: clock periods: 0.00000000142857142857:0.00000000142857142857:0.00000000142857142857:0.00000000108225108225
*** Initializing Memory Statistics ***
GPGPU-Sim uArch: interconnect node map (shaderID+MemID to icntID)
GPGPU-Sim uArch: Memory nodes ID start from index: 15
GPGPU-Sim uArch:    0   1   2   3   4
GPGPU-Sim uArch:    5   6   7   8   9
GPGPU-Sim uArch:   10  11  12  13  14
GPGPU-Sim uArch:   15  16  17  18  19
GPGPU-Sim uArch:   20  21  22  23  24
GPGPU-Sim uArch:   25  26
GPGPU-Sim uArch: interconnect node reverse map (icntID to shaderID+MemID)
GPGPU-Sim uArch: Memory nodes start from ID: 15
GPGPU-Sim uArch:    0   1   2   3   4
GPGPU-Sim uArch:    5   6   7   8   9
GPGPU-Sim uArch:   10  11  12  13  14
GPGPU-Sim uArch:   15  16  17  18  19
GPGPU-Sim uArch:   20  21  22  23  24
GPGPU-Sim uArch:   25  26
fa24d9d62d9e9d43df0eb292e3b27e2e  /home/scratch/adwait/applications/benchmarks/CUDA/BFS/gpgpu_ptx_sim__BFS
GPGPU-Sim uArch: performance model initialization complete.
GPGPU-Sim PTX: __cudaRegisterFatBinary, fat_cubin_handle = 1, filename=bfs.cu
self exe links to: /home/scratch/adwait/applications/benchmarks/CUDA/BFS/gpgpu_ptx_sim__BFS
Running md5sum using "md5sum /home/scratch/adwait/applications/benchmarks/CUDA/BFS/gpgpu_ptx_sim__BFS "
Running cuobjdump using "$CUDA_INSTALL_PATH/bin/cuobjdump -ptx -elf -sass /home/scratch/adwait/applications/benchmarks/CUDA/BFS/gpgpu_ptx_sim__BFS > _cuobjdump_complete_output_GAIxly"
Parsing file _cuobjdump_complete_output_GAIxly
######### cuobjdump parser ########
## Adding new section ELF
Adding arch: sm_20
Adding identifier: bfs.cu
## Adding new section PTX
Adding ptx filename: _cuobjdump_1.ptx
Adding arch: sm_20
Adding identifier: bfs.cu
Done parsing!!!
GPGPU-Sim PTX: __cudaRegisterFunction _Z6KernelP4NodePiPbS2_S1_S2_i : hostFun 0x0x404fc4, fat_cubin_handle = 1
GPGPU-Sim PTX: instruction assembly for function '_Z6KernelP4NodePiPbS2_S1_S2_i'...   done.
GPGPU-Sim PTX: finding reconvergence points for '_Z6KernelP4NodePiPbS2_S1_S2_i'...
GPGPU-Sim PTX: Finding dominators for '_Z6KernelP4NodePiPbS2_S1_S2_i'...
GPGPU-Sim PTX: Finding immediate dominators for '_Z6KernelP4NodePiPbS2_S1_S2_i'...
GPGPU-Sim PTX: Finding postdominators for '_Z6KernelP4NodePiPbS2_S1_S2_i'...
GPGPU-Sim PTX: Finding immediate postdominators for '_Z6KernelP4NodePiPbS2_S1_S2_i'...
GPGPU-Sim PTX: pre-decoding instructions for '_Z6KernelP4NodePiPbS2_S1_S2_i'...
GPGPU-Sim PTX: reconvergence points for _Z6KernelP4NodePiPbS2_S1_S2_i...
GPGPU-Sim PTX:  1 (potential) branch divergence @  PC=0x030 (_1.ptx:72) @%p1 bra $Lt_0_5122;
GPGPU-Sim PTX:    immediate post dominator      @  PC=0x1e8 (_1.ptx:141) exit;
GPGPU-Sim PTX:  2 (potential) branch divergence @  PC=0x068 (_1.ptx:79) @%p2 bra $Lt_0_5122;
GPGPU-Sim PTX:    immediate post dominator      @  PC=0x1e8 (_1.ptx:141) exit;
GPGPU-Sim PTX:  3 (potential) branch divergence @  PC=0x0e0 (_1.ptx:97) @%p3 bra $Lt_0_5122;
GPGPU-Sim PTX:    immediate post dominator      @  PC=0x1e8 (_1.ptx:141) exit;
GPGPU-Sim PTX:  4 (potential) branch divergence @  PC=0x138 (_1.ptx:111) @%p4 bra $Lt_0_4354;
GPGPU-Sim PTX:    immediate post dominator      @  PC=0x1c8 (_1.ptx:134) add.s32 %r11, %r11, 1;
GPGPU-Sim PTX:  5 (potential) branch divergence @  PC=0x1e0 (_1.ptx:137) @%p5 bra $Lt_0_4098;
GPGPU-Sim PTX:    immediate post dominator      @  PC=0x1e8 (_1.ptx:141) exit;
GPGPU-Sim PTX: ... end of reconvergence points for _Z6KernelP4NodePiPbS2_S1_S2_i
GPGPU-Sim PTX: ... done pre-decoding instructions for '_Z6KernelP4NodePiPbS2_S1_S2_i'.
GPGPU-Sim PTX: finished parsing EMBEDDED .ptx file _1.ptx
Adding _cuobjdump_1.ptx with cubin handle 1
GPGPU-Sim PTX: extracting embedded .ptx to temporary file "_ptx_AEwfY1"
Running: cat _ptx_AEwfY1 | sed 's/.version 1.5/.version 1.4/' | sed 's/, texmode_independent//' | sed 's/\(\.extern \.const\[1\] .b8 \w\+\)\[\]/\1\[1\]/' | sed 's/const\[.\]/const\[0\]/g' > _ptx2_u72qBv
GPGPU-Sim PTX: generating ptxinfo using "$CUDA_INSTALL_PATH/bin/ptxas --gpu-name=sm_20 -v _ptx2_u72qBv --output-file  /dev/null 2> _ptx_AEwfY1info"
GPGPU-Sim PTX: Kernel '_Z6KernelP4NodePiPbS2_S1_S2_i' : regs=18, lmem=0, smem=0, cmem=84
GPGPU-Sim PTX: removing ptxinfo using "rm -f _ptx_AEwfY1 _ptx2_u72qBv _ptx_AEwfY1info"
GPGPU-Sim PTX: loading globals with explicit initializers... 
GPGPU-Sim PTX: finished loading globals (0 bytes total).
GPGPU-Sim PTX: loading constants with explicit initializers...  done.
Reading File
Input file: ./data/graph65536.txt
Read File
Copied Everything to GPU memory

GPGPU-Sim PTX: cudaLaunch for 0x0x404fc4 (mode=performance simulation) on stream 0
GPGPU-Sim PTX: pushing kernel '_Z6KernelP4NodePiPbS2_S1_S2_i' to stream 0, gridDim= (256,1,1) blockDim = (256,1,1) 
kernel '_Z6KernelP4NodePiPbS2_S1_S2_i' transfer to GPU hardware scheduler
GPGPU-Sim uArch: Shader 1 bind to kernel 1 '_Z6KernelP4NodePiPbS2_S1_S2_i'
GPGPU-Sim uArch: CTA/core = 6, limited by: threads regs
GPGPU-Sim uArch: core:  1, cta: 0 initialized @(1,0)
GPGPU-Sim uArch: Shader 2 bind to kernel 1 '_Z6KernelP4NodePiPbS2_S1_S2_i'
GPGPU-Sim uArch: core:  2, cta: 0 initialized @(1,0)
GPGPU-Sim uArch: Shader 3 bind to kernel 1 '_Z6KernelP4NodePiPbS2_S1_S2_i'
GPGPU-Sim uArch: core:  3, cta: 0 initialized @(1,0)
GPGPU-Sim uArch: Shader 4 bind to kernel 1 '_Z6KernelP4NodePiPbS2_S1_S2_i'
GPGPU-Sim uArch: core:  4, cta: 0 initialized @(1,0)
GPGPU-Sim uArch: Shader 5 bind to kernel 1 '_Z6KernelP4NodePiPbS2_S1_S2_i'
GPGPU-Sim uArch: core:  5, cta: 0 initialized @(1,0)
GPGPU-Sim uArch: Shader 6 bind to kernel 1 '_Z6KernelP4NodePiPbS2_S1_S2_i'
GPGPU-Sim uArch: core:  6, cta: 0 initialized @(1,0)
GPGPU-Sim uArch: Shader 7 bind to kernel 1 '_Z6KernelP4NodePiPbS2_S1_S2_i'
GPGPU-Sim uArch: core:  7, cta: 0 initialized @(1,0)
GPGPU-Sim uArch: Shader 8 bind to kernel 1 '_Z6KernelP4NodePiPbS2_S1_S2_i'
GPGPU-Sim uArch: core:  8, cta: 0 initialized @(1,0)
GPGPU-Sim uArch: Shader 9 bind to kernel 1 '_Z6KernelP4NodePiPbS2_S1_S2_i'
GPGPU-Sim uArch: core:  9, cta: 0 initialized @(1,0)
GPGPU-Sim uArch: Shader 10 bind to kernel 1 '_Z6KernelP4NodePiPbS2_S1_S2_i'
GPGPU-Sim uArch: core: 10, cta: 0 initialized @(1,0)
GPGPU-Sim uArch: Shader 11 bind to kernel 1 '_Z6KernelP4NodePiPbS2_S1_S2_i'
GPGPU-Sim uArch: core: 11, cta: 0 initialized @(1,0)
GPGPU-Sim uArch: Shader 12 bind to kernel 1 '_Z6KernelP4NodePiPbS2_S1_S2_i'
GPGPU-Sim uArch: core: 12, cta: 0 initialized @(1,0)
GPGPU-Sim uArch: Shader 13 bind to kernel 1 '_Z6KernelP4NodePiPbS2_S1_S2_i'
GPGPU-Sim uArch: core: 13, cta: 0 initialized @(1,0)
GPGPU-Sim uArch: Shader 14 bind to kernel 1 '_Z6KernelP4NodePiPbS2_S1_S2_i'
GPGPU-Sim uArch: core: 14, cta: 0 initialized @(1,0)
GPGPU-Sim uArch: Shader 0 bind to kernel 1 '_Z6KernelP4NodePiPbS2_S1_S2_i'
GPGPU-Sim uArch: core:  0, cta: 0 initialized @(1,0)
GPGPU-Sim uArch: core:  1, cta: 1 initialized @(2,0)
GPGPU-Sim uArch: core:  2, cta: 1 initialized @(2,0)
GPGPU-Sim uArch: core:  3, cta: 1 initialized @(2,0)
GPGPU-Sim uArch: core:  4, cta: 1 initialized @(2,0)
GPGPU-Sim uArch: core:  5, cta: 1 initialized @(2,0)
GPGPU-Sim uArch: core:  6, cta: 1 initialized @(2,0)
GPGPU-Sim uArch: core:  7, cta: 1 initialized @(2,0)
GPGPU-Sim uArch: core:  8, cta: 1 initialized @(2,0)
GPGPU-Sim uArch: core:  9, cta: 1 initialized @(2,0)
GPGPU-Sim uArch: core: 10, cta: 1 initialized @(2,0)
GPGPU-Sim uArch: core: 11, cta: 1 initialized @(2,0)
GPGPU-Sim uArch: core: 12, cta: 1 initialized @(2,0)
GPGPU-Sim uArch: core: 13, cta: 1 initialized @(2,0)
GPGPU-Sim uArch: core: 14, cta: 1 initialized @(2,0)
GPGPU-Sim uArch: core:  0, cta: 1 initialized @(2,0)
GPGPU-Sim uArch: core:  1, cta: 2 initialized @(3,0)
GPGPU-Sim uArch: core:  2, cta: 2 initialized @(3,0)
GPGPU-Sim uArch: core:  3, cta: 2 initialized @(3,0)
GPGPU-Sim uArch: core:  4, cta: 2 initialized @(3,0)
GPGPU-Sim uArch: core:  5, cta: 2 initialized @(3,0)
GPGPU-Sim uArch: core:  6, cta: 2 initialized @(3,0)
GPGPU-Sim uArch: core:  7, cta: 2 initialized @(3,0)
GPGPU-Sim uArch: core:  8, cta: 2 initialized @(3,0)
GPGPU-Sim uArch: core:  9, cta: 2 initialized @(3,0)
GPGPU-Sim uArch: core: 10, cta: 2 initialized @(3,0)
GPGPU-Sim uArch: core: 11, cta: 2 initialized @(3,0)
GPGPU-Sim uArch: core: 12, cta: 2 initialized @(3,0)
GPGPU-Sim uArch: core: 13, cta: 2 initialized @(3,0)
GPGPU-Sim uArch: core: 14, cta: 2 initialized @(3,0)
GPGPU-Sim uArch: core:  0, cta: 2 initialized @(3,0)
GPGPU-Sim uArch: core:  1, cta: 3 initialized @(4,0)
GPGPU-Sim uArch: core:  2, cta: 3 initialized @(4,0)
GPGPU-Sim uArch: core:  3, cta: 3 initialized @(4,0)
GPGPU-Sim uArch: core:  4, cta: 3 initialized @(4,0)
GPGPU-Sim uArch: core:  5, cta: 3 initialized @(4,0)
GPGPU-Sim uArch: core:  6, cta: 3 initialized @(4,0)
GPGPU-Sim uArch: core:  7, cta: 3 initialized @(4,0)
GPGPU-Sim uArch: core:  8, cta: 3 initialized @(4,0)
GPGPU-Sim uArch: core:  9, cta: 3 initialized @(4,0)
GPGPU-Sim uArch: core: 10, cta: 3 initialized @(4,0)
GPGPU-Sim uArch: core: 11, cta: 3 initialized @(4,0)
GPGPU-Sim uArch: core: 12, cta: 3 initialized @(4,0)
GPGPU-Sim uArch: core: 13, cta: 3 initialized @(4,0)
GPGPU-Sim uArch: core: 14, cta: 3 initialized @(4,0)
GPGPU-Sim uArch: core:  0, cta: 3 initialized @(4,0)
GPGPU-Sim uArch: core:  1, cta: 4 initialized @(5,0)
GPGPU-Sim uArch: core:  2, cta: 4 initialized @(5,0)
GPGPU-Sim uArch: core:  3, cta: 4 initialized @(5,0)
GPGPU-Sim uArch: core:  4, cta: 4 initialized @(5,0)
GPGPU-Sim uArch: core:  5, cta: 4 initialized @(5,0)
GPGPU-Sim uArch: core:  6, cta: 4 initialized @(5,0)
GPGPU-Sim uArch: core:  7, cta: 4 initialized @(5,0)
GPGPU-Sim uArch: core:  8, cta: 4 initialized @(5,0)
GPGPU-Sim uArch: core:  9, cta: 4 initialized @(5,0)
GPGPU-Sim uArch: core: 10, cta: 4 initialized @(5,0)
GPGPU-Sim uArch: core: 11, cta: 4 initialized @(5,0)
GPGPU-Sim uArch: core: 12, cta: 4 initialized @(5,0)
GPGPU-Sim uArch: core: 13, cta: 4 initialized @(5,0)
GPGPU-Sim uArch: core: 14, cta: 4 initialized @(5,0)
GPGPU-Sim uArch: core:  0, cta: 4 initialized @(5,0)
GPGPU-Sim uArch: core:  1, cta: 5 initialized @(6,0)
GPGPU-Sim uArch: core:  2, cta: 5 initialized @(6,0)
GPGPU-Sim uArch: core:  3, cta: 5 initialized @(6,0)
GPGPU-Sim uArch: core:  4, cta: 5 initialized @(6,0)
GPGPU-Sim uArch: core:  5, cta: 5 initialized @(6,0)
GPGPU-Sim uArch: core:  6, cta: 5 initialized @(6,0)
GPGPU-Sim uArch: core:  7, cta: 5 initialized @(6,0)
GPGPU-Sim uArch: core:  8, cta: 5 initialized @(6,0)
GPGPU-Sim uArch: core:  9, cta: 5 initialized @(6,0)
GPGPU-Sim uArch: core: 10, cta: 5 initialized @(6,0)
GPGPU-Sim uArch: core: 11, cta: 5 initialized @(6,0)
GPGPU-Sim uArch: core: 12, cta: 5 initialized @(6,0)
GPGPU-Sim uArch: core: 13, cta: 5 initialized @(6,0)
GPGPU-Sim uArch: core: 14, cta: 5 initialized @(6,0)
GPGPU-Sim uArch: core:  0, cta: 5 initialized @(6,0)
GPGPU-Sim PTX: 100000 instructions simulated : ctaid=(52,0,0) tid=(191,0,0)
GPGPU-Sim uArch: cycles simulated: 500  inst.: 92000 (ipc=184.0) sim_rate=92000 (inst/sec) elapsed = 0:0:00:01 / Tue Apr 16 16:49:24 2019
GPGPU-Sim PTX: 200000 instructions simulated : ctaid=(56,0,0) tid=(159,0,0)
GPGPU-Sim uArch: cycles simulated: 1000  inst.: 239393 (ipc=239.4) sim_rate=119696 (inst/sec) elapsed = 0:0:00:02 / Tue Apr 16 16:49:25 2019
GPGPU-Sim PTX: 300000 instructions simulated : ctaid=(44,0,0) tid=(253,0,0)
GPGPU-Sim uArch: Shader 0 finished CTA #0 (1267,0), 5 CTAs running
GPGPU-Sim uArch: core:  0, cta: 0 initialized @(1268,0)
GPGPU-Sim uArch: Shader 0 finished CTA #4 (1279,0), 5 CTAs running
GPGPU-Sim uArch: Shader 0 finished CTA #5 (1279,0), 4 CTAs running
GPGPU-Sim uArch: core:  0, cta: 4 initialized @(1280,0)
GPGPU-Sim uArch: core:  0, cta: 5 initialized @(1281,0)
GPGPU-Sim uArch: Shader 3 finished CTA #4 (1285,0), 5 CTAs running
GPGPU-Sim uArch: Shader 3 finished CTA #5 (1285,0), 4 CTAs running
GPGPU-Sim uArch: Shader 3 finished CTA #0 (1285,0), 3 CTAs running
GPGPU-Sim uArch: Shader 3 finished CTA #1 (1285,0), 2 CTAs running
GPGPU-Sim uArch: Shader 3 finished CTA #2 (1285,0), 1 CTAs running
GPGPU-Sim uArch: core:  3, cta: 0 initialized @(1286,0)
GPGPU-Sim uArch: core:  3, cta: 1 initialized @(1287,0)
GPGPU-Sim uArch: Shader 0 finished CTA #1 (1287,0), 5 CTAs running
GPGPU-Sim uArch: Shader 0 finished CTA #2 (1287,0), 4 CTAs running
GPGPU-Sim uArch: Shader 0 finished CTA #3 (1287,0), 3 CTAs running
GPGPU-Sim uArch: core:  0, cta: 1 initialized @(1288,0)
GPGPU-Sim uArch: core:  3, cta: 2 initialized @(1288,0)
GPGPU-Sim uArch: core:  0, cta: 2 initialized @(1289,0)
GPGPU-Sim uArch: core:  3, cta: 4 initialized @(1289,0)
GPGPU-Sim uArch: core:  0, cta: 3 initialized @(1290,0)
GPGPU-Sim uArch: core:  3, cta: 5 initialized @(1290,0)
GPGPU-Sim uArch: Shader 4 finished CTA #5 (1291,0), 5 CTAs running
GPGPU-Sim uArch: Shader 4 finished CTA #0 (1291,0), 4 CTAs running
GPGPU-Sim uArch: Shader 4 finished CTA #1 (1291,0), 3 CTAs running
GPGPU-Sim uArch: Shader 4 finished CTA #2 (1291,0), 2 CTAs running
GPGPU-Sim uArch: core:  4, cta: 0 initialized @(1292,0)
GPGPU-Sim uArch: core:  4, cta: 1 initialized @(1293,0)
GPGPU-Sim uArch: core:  4, cta: 2 initialized @(1294,0)
GPGPU-Sim uArch: core:  4, cta: 5 initialized @(1295,0)
GPGPU-Sim uArch: Shader 2 finished CTA #5 (1297,0), 5 CTAs running
GPGPU-Sim uArch: Shader 2 finished CTA #0 (1297,0), 4 CTAs running
GPGPU-Sim uArch: Shader 2 finished CTA #1 (1297,0), 3 CTAs running
GPGPU-Sim uArch: Shader 2 finished CTA #2 (1297,0), 2 CTAs running
GPGPU-Sim uArch: core:  2, cta: 0 initialized @(1298,0)
GPGPU-Sim uArch: core:  2, cta: 1 initialized @(1299,0)
GPGPU-Sim uArch: Shader 8 finished CTA #0 (1299,0), 5 CTAs running
GPGPU-Sim uArch: core:  8, cta: 0 initialized @(1300,0)
GPGPU-Sim uArch: core:  2, cta: 2 initialized @(1300,0)
GPGPU-Sim uArch: core:  2, cta: 5 initialized @(1301,0)
GPGPU-Sim uArch: Shader 5 finished CTA #5 (1303,0), 5 CTAs running
GPGPU-Sim uArch: Shader 5 finished CTA #0 (1303,0), 4 CTAs running
GPGPU-Sim uArch: Shader 5 finished CTA #1 (1303,0), 3 CTAs running
GPGPU-Sim uArch: Shader 5 finished CTA #2 (1303,0), 2 CTAs running
GPGPU-Sim uArch: core:  5, cta: 0 initialized @(1304,0)
GPGPU-Sim uArch: core:  5, cta: 1 initialized @(1305,0)
GPGPU-Sim uArch: Shader 11 finished CTA #0 (1305,0), 5 CTAs running
GPGPU-Sim uArch: core: 11, cta: 0 initialized @(1306,0)
GPGPU-Sim uArch: core:  5, cta: 2 initialized @(1306,0)
GPGPU-Sim uArch: core:  5, cta: 5 initialized @(1307,0)
GPGPU-Sim uArch: Shader 1 finished CTA #5 (1308,0), 5 CTAs running
GPGPU-Sim uArch: core:  1, cta: 5 initialized @(1309,0)
GPGPU-Sim uArch: Shader 1 finished CTA #1 (1309,0), 5 CTAs running
GPGPU-Sim uArch: Shader 1 finished CTA #2 (1309,0), 4 CTAs running
GPGPU-Sim uArch: core:  1, cta: 1 initialized @(1310,0)
GPGPU-Sim uArch: Shader 3 finished CTA #3 (1310,0), 5 CTAs running
GPGPU-Sim uArch: core:  3, cta: 3 initialized @(1311,0)
GPGPU-Sim uArch: core:  1, cta: 2 initialized @(1311,0)
GPGPU-Sim uArch: Shader 6 finished CTA #0 (1315,0), 5 CTAs running
GPGPU-Sim uArch: Shader 6 finished CTA #1 (1315,0), 4 CTAs running
GPGPU-Sim uArch: Shader 6 finished CTA #2 (1315,0), 3 CTAs running
GPGPU-Sim uArch: Shader 6 finished CTA #3 (1315,0), 2 CTAs running
GPGPU-Sim uArch: core:  6, cta: 0 initialized @(1316,0)
GPGPU-Sim uArch: Shader 4 finished CTA #3 (1316,0), 5 CTAs running
GPGPU-Sim uArch: Shader 4 finished CTA #4 (1316,0), 4 CTAs running
GPGPU-Sim uArch: core:  4, cta: 3 initialized @(1317,0)
GPGPU-Sim uArch: core:  6, cta: 1 initialized @(1317,0)
GPGPU-Sim uArch: core:  4, cta: 4 initialized @(1318,0)
GPGPU-Sim uArch: core:  6, cta: 2 initialized @(1318,0)
GPGPU-Sim uArch: core:  6, cta: 3 initialized @(1319,0)
GPGPU-Sim uArch: Shader 8 finished CTA #5 (1321,0), 5 CTAs running
GPGPU-Sim uArch: core:  8, cta: 5 initialized @(1322,0)
GPGPU-Sim uArch: Shader 2 finished CTA #3 (1322,0), 5 CTAs running
GPGPU-Sim uArch: Shader 2 finished CTA #4 (1322,0), 4 CTAs running
GPGPU-Sim uArch: core:  2, cta: 3 initialized @(1323,0)
GPGPU-Sim uArch: Shader 11 finished CTA #4 (1323,0), 5 CTAs running
GPGPU-Sim uArch: core: 11, cta: 4 initialized @(1324,0)
GPGPU-Sim uArch: core:  2, cta: 4 initialized @(1324,0)
GPGPU-Sim uArch: Shader 5 finished CTA #3 (1328,0), 5 CTAs running
GPGPU-Sim uArch: Shader 5 finished CTA #4 (1328,0), 4 CTAs running
GPGPU-Sim uArch: core:  5, cta: 3 initialized @(1329,0)
GPGPU-Sim uArch: Shader 8 finished CTA #1 (1329,0), 5 CTAs running
GPGPU-Sim uArch: Shader 8 finished CTA #2 (1329,0), 4 CTAs running
GPGPU-Sim uArch: Shader 8 finished CTA #3 (1329,0), 3 CTAs running
GPGPU-Sim uArch: Shader 8 finished CTA #4 (1329,0), 2 CTAs running
GPGPU-Sim uArch: core:  8, cta: 1 initialized @(1330,0)
GPGPU-Sim uArch: core:  5, cta: 4 initialized @(1330,0)
GPGPU-Sim uArch: core:  8, cta: 2 initialized @(1331,0)
GPGPU-Sim uArch: core:  8, cta: 3 initialized @(1332,0)
GPGPU-Sim uArch: core:  8, cta: 4 initialized @(1333,0)
GPGPU-Sim uArch: Shader 7 finished CTA #5 (1333,0), 5 CTAs running
GPGPU-Sim uArch: Shader 7 finished CTA #0 (1333,0), 4 CTAs running
GPGPU-Sim uArch: Shader 7 finished CTA #1 (1333,0), 3 CTAs running
GPGPU-Sim uArch: Shader 7 finished CTA #2 (1333,0), 2 CTAs running
GPGPU-Sim uArch: core:  7, cta: 0 initialized @(1334,0)
GPGPU-Sim uArch: Shader 1 finished CTA #3 (1334,0), 5 CTAs running
GPGPU-Sim uArch: Shader 1 finished CTA #4 (1334,0), 4 CTAs running
GPGPU-Sim uArch: core:  1, cta: 3 initialized @(1335,0)
GPGPU-Sim uArch: core:  7, cta: 1 initialized @(1335,0)
GPGPU-Sim uArch: Shader 11 finished CTA #1 (1335,0), 5 CTAs running
GPGPU-Sim uArch: Shader 11 finished CTA #2 (1335,0), 4 CTAs running
GPGPU-Sim uArch: Shader 11 finished CTA #3 (1335,0), 3 CTAs running
GPGPU-Sim uArch: core: 11, cta: 1 initialized @(1336,0)
GPGPU-Sim uArch: core:  1, cta: 4 initialized @(1336,0)
GPGPU-Sim uArch: core:  7, cta: 2 initialized @(1336,0)
GPGPU-Sim uArch: core: 11, cta: 2 initialized @(1337,0)
GPGPU-Sim uArch: core:  7, cta: 5 initialized @(1337,0)
GPGPU-Sim uArch: core: 11, cta: 3 initialized @(1338,0)
GPGPU-Sim uArch: Shader 13 finished CTA #0 (1339,0), 5 CTAs running
GPGPU-Sim uArch: Shader 13 finished CTA #1 (1339,0), 4 CTAs running
GPGPU-Sim uArch: Shader 13 finished CTA #2 (1339,0), 3 CTAs running
GPGPU-Sim uArch: Shader 13 finished CTA #3 (1339,0), 2 CTAs running
GPGPU-Sim uArch: core: 13, cta: 0 initialized @(1340,0)
GPGPU-Sim uArch: core: 13, cta: 1 initialized @(1341,0)
GPGPU-Sim uArch: core: 13, cta: 2 initialized @(1342,0)
GPGPU-Sim uArch: core: 13, cta: 3 initialized @(1343,0)
GPGPU-Sim uArch: Shader 11 finished CTA #5 (1343,0), 5 CTAs running
GPGPU-Sim uArch: core: 11, cta: 5 initialized @(1344,0)
GPGPU-Sim uArch: Shader 10 finished CTA #5 (1345,0), 5 CTAs running
GPGPU-Sim uArch: Shader 10 finished CTA #0 (1345,0), 4 CTAs running
GPGPU-Sim uArch: Shader 10 finished CTA #1 (1345,0), 3 CTAs running
GPGPU-Sim uArch: Shader 10 finished CTA #2 (1345,0), 2 CTAs running
GPGPU-Sim uArch: core: 10, cta: 0 initialized @(1346,0)
GPGPU-Sim uArch: core: 10, cta: 1 initialized @(1347,0)
GPGPU-Sim uArch: core: 10, cta: 2 initialized @(1348,0)
GPGPU-Sim uArch: Shader 6 finished CTA #4 (1348,0), 5 CTAs running
GPGPU-Sim uArch: Shader 6 finished CTA #5 (1348,0), 4 CTAs running
GPGPU-Sim uArch: core:  6, cta: 4 initialized @(1349,0)
GPGPU-Sim uArch: core: 10, cta: 5 initialized @(1349,0)
GPGPU-Sim uArch: core:  6, cta: 5 initialized @(1350,0)
GPGPU-Sim uArch: Shader 12 finished CTA #0 (1351,0), 5 CTAs running
GPGPU-Sim uArch: Shader 12 finished CTA #1 (1351,0), 4 CTAs running
GPGPU-Sim uArch: Shader 14 finished CTA #5 (1351,0), 5 CTAs running
GPGPU-Sim uArch: Shader 14 finished CTA #0 (1351,0), 4 CTAs running
GPGPU-Sim uArch: Shader 14 finished CTA #1 (1351,0), 3 CTAs running
GPGPU-Sim uArch: Shader 14 finished CTA #2 (1351,0), 2 CTAs running
GPGPU-Sim uArch: core: 12, cta: 0 initialized @(1352,0)
GPGPU-Sim uArch: core: 14, cta: 0 initialized @(1352,0)
GPGPU-Sim uArch: core: 12, cta: 1 initialized @(1353,0)
GPGPU-Sim uArch: core: 14, cta: 1 initialized @(1353,0)
GPGPU-Sim uArch: core: 14, cta: 2 initialized @(1354,0)
GPGPU-Sim uArch: core: 14, cta: 5 initialized @(1355,0)
GPGPU-Sim uArch: Shader 9 finished CTA #5 (1357,0), 5 CTAs running
GPGPU-Sim uArch: Shader 9 finished CTA #0 (1357,0), 4 CTAs running
GPGPU-Sim uArch: Shader 9 finished CTA #1 (1357,0), 3 CTAs running
GPGPU-Sim uArch: Shader 9 finished CTA #2 (1357,0), 2 CTAs running
GPGPU-Sim uArch: core:  9, cta: 0 initialized @(1358,0)
GPGPU-Sim uArch: Shader 7 finished CTA #3 (1358,0), 5 CTAs running
GPGPU-Sim uArch: Shader 7 finished CTA #4 (1358,0), 4 CTAs running
GPGPU-Sim uArch: core:  7, cta: 3 initialized @(1359,0)
GPGPU-Sim uArch: core:  9, cta: 1 initialized @(1359,0)
GPGPU-Sim uArch: core:  7, cta: 4 initialized @(1360,0)
GPGPU-Sim uArch: core:  9, cta: 2 initialized @(1360,0)
GPGPU-Sim uArch: core:  9, cta: 5 initialized @(1361,0)
GPGPU-Sim uArch: Shader 12 finished CTA #4 (1363,0), 5 CTAs running
GPGPU-Sim uArch: Shader 12 finished CTA #5 (1363,0), 4 CTAs running
GPGPU-Sim uArch: core: 12, cta: 4 initialized @(1364,0)
GPGPU-Sim uArch: core: 12, cta: 5 initialized @(1365,0)
GPGPU-Sim uArch: Shader 10 finished CTA #3 (1370,0), 5 CTAs running
GPGPU-Sim uArch: Shader 10 finished CTA #4 (1370,0), 4 CTAs running
GPGPU-Sim uArch: core: 10, cta: 3 initialized @(1371,0)
GPGPU-Sim uArch: core: 10, cta: 4 initialized @(1372,0)
GPGPU-Sim uArch: Shader 13 finished CTA #4 (1372,0), 5 CTAs running
GPGPU-Sim uArch: Shader 13 finished CTA #5 (1372,0), 4 CTAs running
GPGPU-Sim uArch: core: 13, cta: 4 initialized @(1373,0)
GPGPU-Sim uArch: core: 13, cta: 5 initialized @(1374,0)
GPGPU-Sim uArch: Shader 14 finished CTA #3 (1376,0), 5 CTAs running
GPGPU-Sim uArch: Shader 14 finished CTA #4 (1376,0), 4 CTAs running
GPGPU-Sim uArch: core: 14, cta: 3 initialized @(1377,0)
GPGPU-Sim uArch: core: 14, cta: 4 initialized @(1378,0)
GPGPU-Sim uArch: Shader 12 finished CTA #2 (1379,0), 5 CTAs running
GPGPU-Sim uArch: Shader 12 finished CTA #3 (1379,0), 4 CTAs running
GPGPU-Sim uArch: core: 12, cta: 2 initialized @(1380,0)
GPGPU-Sim uArch: core: 12, cta: 3 initialized @(1381,0)
GPGPU-Sim uArch: Shader 9 finished CTA #3 (1382,0), 5 CTAs running
GPGPU-Sim uArch: Shader 9 finished CTA #4 (1382,0), 4 CTAs running
GPGPU-Sim uArch: core:  9, cta: 3 initialized @(1383,0)
GPGPU-Sim uArch: core:  9, cta: 4 initialized @(1384,0)
GPGPU-Sim PTX: 400000 instructions simulated : ctaid=(159,0,0) tid=(182,0,0)
GPGPU-Sim PTX: 500000 instructions simulated : ctaid=(114,0,0) tid=(85,0,0)
GPGPU-Sim uArch: cycles simulated: 1500  inst.: 459048 (ipc=306.0) sim_rate=153016 (inst/sec) elapsed = 0:0:00:03 / Tue Apr 16 16:49:26 2019
GPGPU-Sim PTX: 600000 instructions simulated : ctaid=(175,0,0) tid=(245,0,0)
GPGPU-Sim uArch: Shader 1 finished CTA #5 (1763,0), 5 CTAs running
GPGPU-Sim uArch: core:  1, cta: 5 initialized @(1764,0)
GPGPU-Sim uArch: Shader 0 finished CTA #0 (1769,0), 5 CTAs running
GPGPU-Sim uArch: core:  0, cta: 0 initialized @(1770,0)
GPGPU-Sim uArch: Shader 3 finished CTA #0 (1778,0), 5 CTAs running
GPGPU-Sim uArch: core:  3, cta: 0 initialized @(1779,0)
GPGPU-Sim uArch: Shader 4 finished CTA #0 (1788,0), 5 CTAs running
GPGPU-Sim uArch: core:  4, cta: 0 initialized @(1789,0)
GPGPU-Sim uArch: Shader 2 finished CTA #0 (1792,0), 5 CTAs running
GPGPU-Sim uArch: core:  2, cta: 0 initialized @(1793,0)
GPGPU-Sim uArch: Shader 1 finished CTA #1 (1801,0), 5 CTAs running
GPGPU-Sim uArch: Shader 1 finished CTA #2 (1801,0), 4 CTAs running
GPGPU-Sim uArch: core:  1, cta: 1 initialized @(1802,0)
GPGPU-Sim uArch: Shader 3 finished CTA #2 (1802,0), 5 CTAs running
GPGPU-Sim uArch: Shader 4 finished CTA #1 (1802,0), 5 CTAs running
GPGPU-Sim uArch: core:  3, cta: 2 initialized @(1803,0)
GPGPU-Sim uArch: core:  4, cta: 1 initialized @(1803,0)
GPGPU-Sim uArch: core:  1, cta: 2 initialized @(1803,0)
GPGPU-Sim uArch: Shader 5 finished CTA #1 (1807,0), 5 CTAs running
GPGPU-Sim uArch: core:  5, cta: 1 initialized @(1808,0)
GPGPU-Sim uArch: Shader 11 finished CTA #0 (1811,0), 5 CTAs running
GPGPU-Sim uArch: core: 11, cta: 0 initialized @(1812,0)
GPGPU-Sim uArch: Shader 8 finished CTA #0 (1812,0), 5 CTAs running
GPGPU-Sim uArch: core:  8, cta: 0 initialized @(1813,0)
GPGPU-Sim uArch: Shader 6 finished CTA #0 (1818,0), 5 CTAs running
GPGPU-Sim uArch: Shader 6 finished CTA #1 (1818,0), 4 CTAs running
GPGPU-Sim uArch: core:  6, cta: 0 initialized @(1819,0)
GPGPU-Sim uArch: core:  6, cta: 1 initialized @(1820,0)
GPGPU-Sim uArch: Shader 0 finished CTA #4 (1829,0), 5 CTAs running
GPGPU-Sim uArch: core:  0, cta: 4 initialized @(1830,0)
GPGPU-Sim uArch: Shader 13 finished CTA #0 (1833,0), 5 CTAs running
GPGPU-Sim uArch: core: 13, cta: 0 initialized @(1834,0)
GPGPU-Sim uArch: Shader 5 finished CTA #0 (1836,0), 5 CTAs running
GPGPU-Sim uArch: core:  5, cta: 0 initialized @(1837,0)
GPGPU-Sim uArch: Shader 2 finished CTA #2 (1844,0), 5 CTAs running
GPGPU-Sim uArch: core:  2, cta: 2 initialized @(1845,0)
GPGPU-Sim uArch: Shader 7 finished CTA #0 (1846,0), 5 CTAs running
GPGPU-Sim uArch: core:  7, cta: 0 initialized @(1847,0)
GPGPU-Sim uArch: Shader 14 finished CTA #0 (1848,0), 5 CTAs running
GPGPU-Sim uArch: core: 14, cta: 0 initialized @(1849,0)
GPGPU-Sim uArch: Shader 3 finished CTA #1 (1852,0), 5 CTAs running
GPGPU-Sim uArch: core:  3, cta: 1 initialized @(1853,0)
GPGPU-Sim uArch: Shader 3 finished CTA #4 (1860,0), 5 CTAs running
GPGPU-Sim uArch: core:  3, cta: 4 initialized @(1861,0)
GPGPU-Sim uArch: Shader 0 finished CTA #5 (1863,0), 5 CTAs running
GPGPU-Sim uArch: core:  0, cta: 5 initialized @(1864,0)
GPGPU-Sim uArch: Shader 2 finished CTA #1 (1864,0), 5 CTAs running
GPGPU-Sim uArch: core:  2, cta: 1 initialized @(1865,0)
GPGPU-Sim uArch: Shader 11 finished CTA #4 (1868,0), 5 CTAs running
GPGPU-Sim uArch: core: 11, cta: 4 initialized @(1869,0)
GPGPU-Sim uArch: Shader 12 finished CTA #0 (1870,0), 5 CTAs running
GPGPU-Sim uArch: core: 12, cta: 0 initialized @(1871,0)
GPGPU-Sim uArch: Shader 0 finished CTA #1 (1871,0), 5 CTAs running
GPGPU-Sim uArch: core:  0, cta: 1 initialized @(1872,0)
GPGPU-Sim uArch: Shader 5 finished CTA #2 (1872,0), 5 CTAs running
GPGPU-Sim uArch: core:  5, cta: 2 initialized @(1873,0)
GPGPU-Sim uArch: Shader 6 finished CTA #2 (1873,0), 5 CTAs running
GPGPU-Sim uArch: Shader 6 finished CTA #3 (1873,0), 4 CTAs running
GPGPU-Sim uArch: core:  6, cta: 2 initialized @(1874,0)
GPGPU-Sim uArch: core:  6, cta: 3 initialized @(1875,0)
GPGPU-Sim uArch: Shader 10 finished CTA #0 (1875,0), 5 CTAs running
GPGPU-Sim uArch: core: 10, cta: 0 initialized @(1876,0)
GPGPU-Sim uArch: Shader 5 finished CTA #5 (1876,0), 5 CTAs running
GPGPU-Sim uArch: Shader 8 finished CTA #5 (1876,0), 5 CTAs running
GPGPU-Sim uArch: core:  5, cta: 5 initialized @(1877,0)
GPGPU-Sim uArch: core:  8, cta: 5 initialized @(1877,0)
GPGPU-Sim uArch: Shader 2 finished CTA #5 (1881,0), 5 CTAs running
GPGPU-Sim uArch: core:  2, cta: 5 initialized @(1882,0)
GPGPU-Sim uArch: Shader 4 finished CTA #5 (1882,0), 5 CTAs running
GPGPU-Sim uArch: core:  4, cta: 5 initialized @(1883,0)
GPGPU-Sim uArch: Shader 1 finished CTA #3 (1885,0), 5 CTAs running
GPGPU-Sim uArch: core:  1, cta: 3 initialized @(1886,0)
GPGPU-Sim uArch: Shader 14 finished CTA #1 (1888,0), 5 CTAs running
GPGPU-Sim uArch: core: 14, cta: 1 initialized @(1889,0)
GPGPU-Sim uArch: Shader 4 finished CTA #2 (1895,0), 5 CTAs running
GPGPU-Sim PTX: 700000 instructions simulated : ctaid=(197,0,0) tid=(109,0,0)
GPGPU-Sim uArch: core:  4, cta: 2 initialized @(1896,0)
GPGPU-Sim uArch: Shader 7 finished CTA #1 (1898,0), 5 CTAs running
GPGPU-Sim uArch: Shader 7 finished CTA #2 (1898,0), 4 CTAs running
GPGPU-Sim uArch: core:  7, cta: 1 initialized @(1899,0)
GPGPU-Sim uArch: Shader 10 finished CTA #1 (1899,0), 5 CTAs running
GPGPU-Sim uArch: Shader 13 finished CTA #1 (1899,0), 5 CTAs running
GPGPU-Sim uArch: Shader 13 finished CTA #2 (1899,0), 4 CTAs running
GPGPU-Sim uArch: Shader 13 finished CTA #3 (1899,0), 3 CTAs running
GPGPU-Sim uArch: core: 10, cta: 1 initialized @(1900,0)
GPGPU-Sim uArch: core: 13, cta: 1 initialized @(1900,0)
GPGPU-Sim uArch: core:  7, cta: 2 initialized @(1900,0)
GPGPU-Sim uArch: core: 13, cta: 2 initialized @(1901,0)
GPGPU-Sim uArch: core: 13, cta: 3 initialized @(1902,0)
GPGPU-Sim uArch: Shader 9 finished CTA #0 (1909,0), 5 CTAs running
GPGPU-Sim uArch: core:  9, cta: 0 initialized @(1910,0)
GPGPU-Sim uArch: Shader 8 finished CTA #1 (1912,0), 5 CTAs running
GPGPU-Sim uArch: Shader 8 finished CTA #2 (1912,0), 4 CTAs running
GPGPU-Sim uArch: core:  8, cta: 1 initialized @(1913,0)
GPGPU-Sim uArch: core:  8, cta: 2 initialized @(1914,0)
GPGPU-Sim uArch: Shader 9 finished CTA #1 (1932,0), 5 CTAs running
GPGPU-Sim uArch: Shader 9 finished CTA #2 (1932,0), 4 CTAs running
GPGPU-Sim uArch: Shader 14 finished CTA #5 (1932,0), 5 CTAs running
GPGPU-Sim uArch: core:  9, cta: 1 initialized @(1933,0)
GPGPU-Sim uArch: core: 14, cta: 5 initialized @(1933,0)
GPGPU-Sim uArch: core:  9, cta: 2 initialized @(1934,0)
GPGPU-Sim uArch: Shader 10 finished CTA #2 (1934,0), 5 CTAs running
GPGPU-Sim uArch: core: 10, cta: 2 initialized @(1935,0)
GPGPU-Sim uArch: Shader 4 finished CTA #3 (1939,0), 5 CTAs running
GPGPU-Sim uArch: Shader 11 finished CTA #3 (1939,0), 5 CTAs running
GPGPU-Sim uArch: core: 11, cta: 3 initialized @(1940,0)
GPGPU-Sim uArch: core:  4, cta: 3 initialized @(1940,0)
GPGPU-Sim uArch: Shader 9 finished CTA #5 (1940,0), 5 CTAs running
GPGPU-Sim uArch: core:  9, cta: 5 initialized @(1941,0)
GPGPU-Sim uArch: Shader 0 finished CTA #2 (1944,0), 5 CTAs running
GPGPU-Sim uArch: core:  0, cta: 2 initialized @(1945,0)
GPGPU-Sim uArch: Shader 7 finished CTA #5 (1948,0), 5 CTAs running
GPGPU-Sim uArch: core:  7, cta: 5 initialized @(1949,0)
GPGPU-Sim uArch: Shader 2 finished CTA #3 (1949,0), 5 CTAs running
GPGPU-Sim uArch: core:  2, cta: 3 initialized @(1950,0)
GPGPU-Sim uArch: Shader 12 finished CTA #1 (1951,0), 5 CTAs running
GPGPU-Sim uArch: core: 12, cta: 1 initialized @(1952,0)
GPGPU-Sim uArch: Shader 11 finished CTA #1 (1959,0), 5 CTAs running
GPGPU-Sim uArch: Shader 11 finished CTA #2 (1959,0), 4 CTAs running
GPGPU-Sim uArch: core: 11, cta: 1 initialized @(1960,0)
GPGPU-Sim uArch: core: 11, cta: 2 initialized @(1961,0)
GPGPU-Sim uArch: Shader 12 finished CTA #4 (1967,0), 5 CTAs running
GPGPU-Sim uArch: Shader 12 finished CTA #5 (1967,0), 4 CTAs running
GPGPU-Sim uArch: core: 12, cta: 4 initialized @(1968,0)
GPGPU-Sim uArch: core: 12, cta: 5 initialized @(1969,0)
GPGPU-Sim uArch: Shader 7 finished CTA #3 (1972,0), 5 CTAs running
GPGPU-Sim uArch: core:  7, cta: 3 initialized @(1973,0)
GPGPU-Sim uArch: Shader 10 finished CTA #5 (1982,0), 5 CTAs running
GPGPU-Sim uArch: core: 10, cta: 5 initialized @(1983,0)
GPGPU-Sim uArch: Shader 1 finished CTA #4 (1983,0), 5 CTAs running
GPGPU-Sim uArch: Shader 4 finished CTA #4 (1983,0), 5 CTAs running
GPGPU-Sim uArch: core:  1, cta: 4 initialized @(1984,0)
GPGPU-Sim uArch: core:  4, cta: 4 initialized @(1984,0)
GPGPU-Sim uArch: Shader 3 finished CTA #5 (1984,0), 5 CTAs running
GPGPU-Sim uArch: Shader 14 finished CTA #2 (1984,0), 5 CTAs running
GPGPU-Sim uArch: Shader 14 finished CTA #3 (1984,0), 4 CTAs running
GPGPU-Sim uArch: core: 14, cta: 2 initialized @(1985,0)
GPGPU-Sim uArch: core:  3, cta: 5 initialized @(1985,0)
GPGPU-Sim uArch: core: 14, cta: 3 initialized @(1986,0)
GPGPU-Sim uArch: Shader 0 finished CTA #3 (1987,0), 5 CTAs running
GPGPU-Sim uArch: core:  0, cta: 3 initialized @(1988,0)
GPGPU-Sim uArch: Shader 8 finished CTA #3 (1993,0), 5 CTAs running
GPGPU-Sim uArch: core:  8, cta: 3 initialized @(1994,0)
GPGPU-Sim uArch: Shader 6 finished CTA #4 (1995,0), 5 CTAs running
GPGPU-Sim uArch: core:  6, cta: 4 initialized @(1996,0)
GPGPU-Sim uArch: Shader 2 finished CTA #4 (1996,0), 5 CTAs running
GPGPU-Sim uArch: core:  2, cta: 4 initialized @(1997,0)
GPGPU-Sim uArch: cycles simulated: 2000  inst.: 725041 (ipc=362.5) sim_rate=181260 (inst/sec) elapsed = 0:0:00:04 / Tue Apr 16 16:49:27 2019
GPGPU-Sim uArch: Shader 5 finished CTA #3 (2004,0), 5 CTAs running
GPGPU-Sim uArch: Shader 5 finished CTA #4 (2004,0), 4 CTAs running
GPGPU-Sim uArch: core:  5, cta: 3 initialized @(2005,0)
GPGPU-Sim uArch: Shader 9 finished CTA #3 (2005,0), 5 CTAs running
GPGPU-Sim uArch: core:  9, cta: 3 initialized @(2006,0)
GPGPU-Sim uArch: core:  5, cta: 4 initialized @(2006,0)
GPGPU-Sim uArch: Shader 10 finished CTA #3 (2006,0), 5 CTAs running
GPGPU-Sim uArch: core: 10, cta: 3 initialized @(2007,0)
GPGPU-Sim uArch: Shader 3 finished CTA #3 (2008,0), 5 CTAs running
GPGPU-Sim uArch: Shader 13 finished CTA #4 (2015,0), 5 CTAs running
GPGPU-Sim PTX: 800000 instructions simulated : ctaid=(195,0,0) tid=(75,0,0)
GPGPU-Sim uArch: Shader 11 finished CTA #5 (2018,0), 5 CTAs running
GPGPU-Sim uArch: Shader 7 finished CTA #4 (2020,0), 5 CTAs running
GPGPU-Sim uArch: Shader 12 finished CTA #2 (2027,0), 5 CTAs running
GPGPU-Sim uArch: Shader 12 finished CTA #3 (2027,0), 4 CTAs running
GPGPU-Sim uArch: Shader 8 finished CTA #4 (2034,0), 5 CTAs running
GPGPU-Sim uArch: Shader 6 finished CTA #5 (2039,0), 5 CTAs running
GPGPU-Sim uArch: Shader 13 finished CTA #5 (2048,0), 4 CTAs running
GPGPU-Sim uArch: Shader 10 finished CTA #4 (2050,0), 5 CTAs running
GPGPU-Sim uArch: Shader 9 finished CTA #4 (2053,0), 5 CTAs running
GPGPU-Sim uArch: Shader 14 finished CTA #4 (2076,0), 5 CTAs running
GPGPU-Sim PTX: 900000 instructions simulated : ctaid=(248,0,0) tid=(43,0,0)
GPGPU-Sim uArch: Shader 1 finished CTA #5 (2185,0), 5 CTAs running
GPGPU-Sim uArch: Shader 0 finished CTA #0 (2205,0), 5 CTAs running
GPGPU-Sim uArch: Shader 5 finished CTA #1 (2245,0), 5 CTAs running
GPGPU-Sim uArch: Shader 3 finished CTA #0 (2246,0), 4 CTAs running
GPGPU-Sim uArch: Shader 11 finished CTA #0 (2247,0), 4 CTAs running
GPGPU-Sim uArch: Shader 4 finished CTA #0 (2254,0), 5 CTAs running
GPGPU-Sim uArch: Shader 1 finished CTA #1 (2259,0), 4 CTAs running
GPGPU-Sim uArch: Shader 2 finished CTA #0 (2262,0), 5 CTAs running
GPGPU-Sim uArch: Shader 8 finished CTA #0 (2263,0), 4 CTAs running
GPGPU-Sim uArch: Shader 3 finished CTA #2 (2305,0), 3 CTAs running
GPGPU-Sim uArch: Shader 1 finished CTA #2 (2308,0), 3 CTAs running
GPGPU-Sim uArch: Shader 5 finished CTA #0 (2310,0), 4 CTAs running
GPGPU-Sim uArch: Shader 6 finished CTA #0 (2312,0), 4 CTAs running
GPGPU-Sim uArch: Shader 13 finished CTA #0 (2313,0), 3 CTAs running
GPGPU-Sim uArch: Shader 4 finished CTA #1 (2316,0), 4 CTAs running
GPGPU-Sim uArch: Shader 6 finished CTA #1 (2316,0), 3 CTAs running
GPGPU-Sim uArch: Shader 12 finished CTA #0 (2317,0), 3 CTAs running
GPGPU-Sim uArch: Shader 14 finished CTA #0 (2322,0), 4 CTAs running
GPGPU-Sim uArch: Shader 7 finished CTA #0 (2326,0), 4 CTAs running
GPGPU-Sim uArch: Shader 1 finished CTA #3 (2338,0), 2 CTAs running
GPGPU-Sim uArch: Shader 11 finished CTA #4 (2341,0), 3 CTAs running
GPGPU-Sim uArch: Shader 10 finished CTA #0 (2356,0), 4 CTAs running
GPGPU-Sim uArch: Shader 0 finished CTA #4 (2358,0), 4 CTAs running
GPGPU-Sim uArch: Shader 2 finished CTA #2 (2358,0), 4 CTAs running
GPGPU-Sim uArch: Shader 3 finished CTA #1 (2369,0), 2 CTAs running
GPGPU-Sim uArch: Shader 3 finished CTA #4 (2373,0), 1 CTAs running
GPGPU-Sim uArch: Shader 8 finished CTA #5 (2377,0), 3 CTAs running
GPGPU-Sim uArch: Shader 14 finished CTA #1 (2382,0), 3 CTAs running
GPGPU-Sim uArch: Shader 0 finished CTA #5 (2383,0), 3 CTAs running
GPGPU-Sim uArch: Shader 13 finished CTA #1 (2383,0), 2 CTAs running
GPGPU-Sim uArch: Shader 5 finished CTA #2 (2386,0), 3 CTAs running
GPGPU-Sim uArch: Shader 0 finished CTA #1 (2387,0), 2 CTAs running
GPGPU-Sim uArch: Shader 2 finished CTA #1 (2390,0), 3 CTAs running
GPGPU-Sim uArch: Shader 9 finished CTA #0 (2391,0), 4 CTAs running
GPGPU-Sim uArch: Shader 6 finished CTA #2 (2400,0), 2 CTAs running
GPGPU-Sim uArch: Shader 1 finished CTA #4 (2402,0), 1 CTAs running
GPGPU-Sim uArch: Shader 13 finished CTA #2 (2404,0), 1 CTAs running
GPGPU-Sim uArch: Shader 4 finished CTA #5 (2406,0), 3 CTAs running
GPGPU-Sim uArch: Shader 6 finished CTA #3 (2406,0), 1 CTAs running
GPGPU-Sim uArch: Shader 8 finished CTA #1 (2406,0), 2 CTAs running
GPGPU-Sim uArch: Shader 7 finished CTA #1 (2407,0), 3 CTAs running
GPGPU-Sim uArch: Shader 10 finished CTA #1 (2409,0), 3 CTAs running
GPGPU-Sim uArch: Shader 8 finished CTA #2 (2417,0), 1 CTAs running
GPGPU-Sim uArch: Shader 7 finished CTA #2 (2418,0), 2 CTAs running
GPGPU-Sim uArch: Shader 4 finished CTA #2 (2419,0), 2 CTAs running
GPGPU-Sim uArch: Shader 5 finished CTA #5 (2423,0), 2 CTAs running
GPGPU-Sim uArch: Shader 12 finished CTA #1 (2429,0), 2 CTAs running
GPGPU-Sim uArch: Shader 13 finished CTA #3 (2429,0), 0 CTAs running
GPGPU-Sim uArch: Shader 13 empty (release kernel 1 '_Z6KernelP4NodePiPbS2_S1_S2_i').
GPGPU-Sim uArch: Shader 2 finished CTA #5 (2431,0), 2 CTAs running
GPGPU-Sim uArch: Shader 3 finished CTA #5 (2436,0), 0 CTAs running
GPGPU-Sim uArch: Shader 3 empty (release kernel 1 '_Z6KernelP4NodePiPbS2_S1_S2_i').
GPGPU-Sim uArch: Shader 12 finished CTA #4 (2439,0), 1 CTAs running
GPGPU-Sim uArch: Shader 0 finished CTA #2 (2443,0), 1 CTAs running
GPGPU-Sim uArch: Shader 10 finished CTA #2 (2443,0), 2 CTAs running
GPGPU-Sim uArch: Shader 11 finished CTA #3 (2448,0), 2 CTAs running
GPGPU-Sim uArch: Shader 14 finished CTA #5 (2449,0), 2 CTAs running
GPGPU-Sim uArch: Shader 4 finished CTA #3 (2451,0), 1 CTAs running
GPGPU-Sim uArch: Shader 11 finished CTA #1 (2453,0), 1 CTAs running
GPGPU-Sim uArch: Shader 6 finished CTA #4 (2455,0), 0 CTAs running
GPGPU-Sim uArch: Shader 6 empty (release kernel 1 '_Z6KernelP4NodePiPbS2_S1_S2_i').
GPGPU-Sim uArch: Shader 9 finished CTA #1 (2459,0), 3 CTAs running
GPGPU-Sim uArch: Shader 2 finished CTA #3 (2460,0), 1 CTAs running
GPGPU-Sim uArch: Shader 11 finished CTA #2 (2461,0), 0 CTAs running
GPGPU-Sim uArch: Shader 11 empty (release kernel 1 '_Z6KernelP4NodePiPbS2_S1_S2_i').
GPGPU-Sim uArch: Shader 8 finished CTA #3 (2462,0), 0 CTAs running
GPGPU-Sim uArch: Shader 8 empty (release kernel 1 '_Z6KernelP4NodePiPbS2_S1_S2_i').
GPGPU-Sim uArch: Shader 12 finished CTA #5 (2467,0), 0 CTAs running
GPGPU-Sim uArch: Shader 12 empty (release kernel 1 '_Z6KernelP4NodePiPbS2_S1_S2_i').
GPGPU-Sim uArch: Shader 9 finished CTA #2 (2470,0), 2 CTAs running
GPGPU-Sim uArch: Shader 0 finished CTA #3 (2471,0), 0 CTAs running
GPGPU-Sim uArch: Shader 0 empty (release kernel 1 '_Z6KernelP4NodePiPbS2_S1_S2_i').
GPGPU-Sim uArch: Shader 14 finished CTA #2 (2471,0), 1 CTAs running
GPGPU-Sim uArch: Shader 7 finished CTA #5 (2473,0), 1 CTAs running
GPGPU-Sim uArch: Shader 9 finished CTA #5 (2477,0), 1 CTAs running
GPGPU-Sim uArch: Shader 4 finished CTA #4 (2481,0), 0 CTAs running
GPGPU-Sim uArch: Shader 4 empty (release kernel 1 '_Z6KernelP4NodePiPbS2_S1_S2_i').
GPGPU-Sim uArch: Shader 7 finished CTA #3 (2482,0), 0 CTAs running
GPGPU-Sim uArch: Shader 7 empty (release kernel 1 '_Z6KernelP4NodePiPbS2_S1_S2_i').
GPGPU-Sim uArch: Shader 14 finished CTA #3 (2484,0), 0 CTAs running
GPGPU-Sim uArch: Shader 14 empty (release kernel 1 '_Z6KernelP4NodePiPbS2_S1_S2_i').
GPGPU-Sim uArch: Shader 2 finished CTA #4 (2485,0), 0 CTAs running
GPGPU-Sim uArch: Shader 2 empty (release kernel 1 '_Z6KernelP4NodePiPbS2_S1_S2_i').
GPGPU-Sim uArch: Shader 5 finished CTA #3 (2491,0), 1 CTAs running
GPGPU-Sim uArch: Shader 5 finished CTA #4 (2498,0), 0 CTAs running
GPGPU-Sim uArch: Shader 5 empty (release kernel 1 '_Z6KernelP4NodePiPbS2_S1_S2_i').
GPGPU-Sim uArch: Shader 10 finished CTA #3 (2505,0), 1 CTAs running
GPGPU-Sim uArch: Shader 10 finished CTA #5 (2507,0), 0 CTAs running
GPGPU-Sim uArch: Shader 10 empty (release kernel 1 '_Z6KernelP4NodePiPbS2_S1_S2_i').
GPGPU-Sim uArch: Shader 9 finished CTA #3 (2521,0), 0 CTAs running
GPGPU-Sim uArch: Shader 9 empty (release kernel 1 '_Z6KernelP4NodePiPbS2_S1_S2_i').
GPGPU-Sim uArch: cycles simulated: 3000  inst.: 917520 (ipc=305.8) sim_rate=183504 (inst/sec) elapsed = 0:0:00:05 / Tue Apr 16 16:49:28 2019
GPGPU-Sim uArch: Shader 1 finished CTA #0 (5947,0), 0 CTAs running
GPGPU-Sim uArch: Shader 1 empty (release kernel 1 '_Z6KernelP4NodePiPbS2_S1_S2_i').
GPGPU-Sim uArch: GPU detected kernel '_Z6KernelP4NodePiPbS2_S1_S2_i' finished on shader 1.
kernel_name = _Z6KernelP4NodePiPbS2_S1_S2_i 
kernel_launch_uid = 1 
gpu_sim_cycle = 5948
gpu_sim_insn = 917736
gpu_ipc =     154.2932
gpu_tot_sim_cycle = 5948
gpu_tot_sim_insn = 917736
gpu_tot_ipc =     154.2932
gpu_tot_issued_cta = 0
gpu_stall_dramfull = 291
gpu_stall_icnt2sh    = 207
gpu_total_sim_rate=183547

========= Core cache stats =========
L1I_cache:
	L1I_total_cache_accesses = 19521
	L1I_total_cache_misses = 962
	L1I_total_cache_miss_rate = 0.0493
	L1I_total_cache_pending_hits = 0
	L1I_total_cache_reservation_fails = 6682
L1D_cache:
	L1D_cache_core[0]: Access = 144, Miss = 36, Miss_rate = 0.250, Pending_hits = 108, Reservation_fails = 0
	L1D_cache_core[1]: Access = 196, Miss = 68, Miss_rate = 0.347, Pending_hits = 96, Reservation_fails = 0
	L1D_cache_core[2]: Access = 144, Miss = 36, Miss_rate = 0.250, Pending_hits = 108, Reservation_fails = 0
	L1D_cache_core[3]: Access = 136, Miss = 34, Miss_rate = 0.250, Pending_hits = 102, Reservation_fails = 0
	L1D_cache_core[4]: Access = 144, Miss = 36, Miss_rate = 0.250, Pending_hits = 108, Reservation_fails = 0
	L1D_cache_core[5]: Access = 144, Miss = 36, Miss_rate = 0.250, Pending_hits = 108, Reservation_fails = 0
	L1D_cache_core[6]: Access = 136, Miss = 34, Miss_rate = 0.250, Pending_hits = 102, Reservation_fails = 0
	L1D_cache_core[7]: Access = 136, Miss = 34, Miss_rate = 0.250, Pending_hits = 102, Reservation_fails = 0
	L1D_cache_core[8]: Access = 136, Miss = 34, Miss_rate = 0.250, Pending_hits = 102, Reservation_fails = 0
	L1D_cache_core[9]: Access = 136, Miss = 34, Miss_rate = 0.250, Pending_hits = 102, Reservation_fails = 0
	L1D_cache_core[10]: Access = 136, Miss = 34, Miss_rate = 0.250, Pending_hits = 102, Reservation_fails = 0
	L1D_cache_core[11]: Access = 136, Miss = 34, Miss_rate = 0.250, Pending_hits = 102, Reservation_fails = 0
	L1D_cache_core[12]: Access = 128, Miss = 32, Miss_rate = 0.250, Pending_hits = 96, Reservation_fails = 0
	L1D_cache_core[13]: Access = 128, Miss = 32, Miss_rate = 0.250, Pending_hits = 96, Reservation_fails = 0
	L1D_cache_core[14]: Access = 136, Miss = 34, Miss_rate = 0.250, Pending_hits = 102, Reservation_fails = 0
	L1D_total_cache_accesses = 2116
	L1D_total_cache_misses = 548
	L1D_total_cache_miss_rate = 0.2590
	L1D_total_cache_pending_hits = 1536
	L1D_total_cache_reservation_fails = 0
	L1D_cache_data_port_util = 0.001
	L1D_cache_fill_port_util = 0.013
L1C_cache:
	L1C_total_cache_accesses = 4115
	L1C_total_cache_misses = 480
	L1C_total_cache_miss_rate = 0.1166
	L1C_total_cache_pending_hits = 0
	L1C_total_cache_reservation_fails = 3411
L1T_cache:
	L1T_total_cache_accesses = 0
	L1T_total_cache_misses = 0
	L1T_total_cache_pending_hits = 0
	L1T_total_cache_reservation_fails = 0

Total_core_cache_stats:
	Total_core_cache_stats_breakdown[GLOBAL_ACC_R][HIT] = 31
	Total_core_cache_stats_breakdown[GLOBAL_ACC_R][HIT_RESERVED] = 1536
	Total_core_cache_stats_breakdown[GLOBAL_ACC_R][MISS] = 523
	Total_core_cache_stats_breakdown[CONST_ACC_R][HIT] = 3635
	Total_core_cache_stats_breakdown[CONST_ACC_R][MISS] = 480
	Total_core_cache_stats_breakdown[CONST_ACC_R][RESERVATION_FAIL] = 3411
	Total_core_cache_stats_breakdown[GLOBAL_ACC_W][HIT] = 1
	Total_core_cache_stats_breakdown[GLOBAL_ACC_W][MISS] = 25
	Total_core_cache_stats_breakdown[INST_ACC_R][HIT] = 18559
	Total_core_cache_stats_breakdown[INST_ACC_R][MISS] = 962
	Total_core_cache_stats_breakdown[INST_ACC_R][RESERVATION_FAIL] = 6682
Shader 0 warp_id issue ditsribution:
warp_id:
0, 1, 2, 3, 4, 5, 6, 7, 8, 9, 10, 11, 12, 13, 14, 15, 16, 17, 18, 19, 20, 21, 22, 23, 24, 25, 26, 27, 28, 29, 30, 31, 32, 33, 34, 35, 36, 37, 38, 39, 40, 41, 42, 43, 44, 45, 46, 47, 
distro:
45, 45, 45, 45, 45, 45, 45, 45, 45, 45, 45, 45, 45, 45, 45, 45, 45, 45, 45, 45, 45, 45, 45, 45, 45, 45, 45, 45, 45, 45, 45, 45, 45, 45, 45, 45, 45, 45, 45, 45, 45, 45, 45, 45, 45, 45, 45, 45, 
gpgpu_n_tot_thrd_icount = 990816
gpgpu_n_tot_w_icount = 30963
gpgpu_n_stall_shd_mem = 3411
gpgpu_n_mem_read_local = 0
gpgpu_n_mem_write_local = 0
gpgpu_n_mem_read_global = 523
gpgpu_n_mem_write_global = 26
gpgpu_n_mem_texture = 0
gpgpu_n_mem_const = 15
gpgpu_n_load_insn  = 65578
gpgpu_n_store_insn = 26
gpgpu_n_shmem_insn = 0
gpgpu_n_tex_insn = 0
gpgpu_n_const_mem_insn = 0
gpgpu_n_param_mem_insn = 131091
gpgpu_n_shmem_bkconflict = 0
gpgpu_n_cache_bkconflict = 0
gpgpu_n_intrawarp_mshr_merge = 0
gpgpu_n_cmem_portconflict = 3411
gpgpu_stall_shd_mem[c_mem][bk_conf] = 3411
gpgpu_stall_shd_mem[c_mem][mshr_rc] = 0
gpgpu_stall_shd_mem[c_mem][icnt_rc] = 0
gpgpu_stall_shd_mem[c_mem][data_port_stall] = 0
gpgpu_stall_shd_mem[t_mem][mshr_rc] = 0
gpgpu_stall_shd_mem[t_mem][icnt_rc] = 0
gpgpu_stall_shd_mem[t_mem][data_port_stall] = 0
gpgpu_stall_shd_mem[s_mem][bk_conf] = 0
gpgpu_stall_shd_mem[gl_mem][bk_conf] = 0
gpgpu_stall_shd_mem[gl_mem][coal_stall] = 0
gpgpu_stall_shd_mem[gl_mem][data_port_stall] = 0
gpgpu_stall_shd_mem[g_mem_ld][mshr_rc] = 0
gpgpu_stall_shd_mem[g_mem_ld][icnt_rc] = 0
gpgpu_stall_shd_mem[g_mem_ld][wb_icnt_rc] = 0
gpgpu_stall_shd_mem[g_mem_ld][wb_rsrv_fail] = 0
gpgpu_stall_shd_mem[g_mem_st][mshr_rc] = 0
gpgpu_stall_shd_mem[g_mem_st][icnt_rc] = 0
gpgpu_stall_shd_mem[g_mem_st][wb_icnt_rc] = 0
gpgpu_stall_shd_mem[g_mem_st][wb_rsrv_fail] = 0
gpgpu_stall_shd_mem[l_mem_ld][mshr_rc] = 0
gpgpu_stall_shd_mem[l_mem_ld][icnt_rc] = 0
gpgpu_stall_shd_mem[l_mem_ld][wb_icnt_rc] = 0
gpgpu_stall_shd_mem[l_mem_ld][wb_rsrv_fail] = 0
gpgpu_stall_shd_mem[l_mem_st][mshr_rc] = 0
gpgpu_stall_shd_mem[l_mem_st][icnt_rc] = 0
gpgpu_stall_shd_mem[l_mem_ld][wb_icnt_rc] = 0
gpgpu_stall_shd_mem[l_mem_ld][wb_rsrv_fail] = 0
gpu_reg_bank_conflict_stalls = 0
Warp Occupancy Distribution:
Stall:7237	W0_Idle:18628	W0_Scoreboard:24374	W1:243	W2:0	W3:0	W4:0	W5:0	W6:0	W7:0	W8:0	W9:0	W10:0	W11:0	W12:0	W13:0	W14:0	W15:0	W16:0	W17:0	W18:0	W19:0	W20:0	W21:0	W22:0	W23:0	W24:0	W25:0	W26:0	W27:0	W28:0	W29:0	W30:0	W31:0	W32:30720
traffic_breakdown_coretomem[CONST_ACC_R] = 120 {8:15,}
traffic_breakdown_coretomem[GLOBAL_ACC_R] = 4184 {8:523,}
traffic_breakdown_coretomem[GLOBAL_ACC_W] = 1040 {40:26,}
traffic_breakdown_coretomem[INST_ACC_R] = 256 {8:32,}
traffic_breakdown_memtocore[CONST_ACC_R] = 1080 {72:15,}
traffic_breakdown_memtocore[GLOBAL_ACC_R] = 71128 {136:523,}
traffic_breakdown_memtocore[GLOBAL_ACC_W] = 208 {8:26,}
traffic_breakdown_memtocore[INST_ACC_R] = 4352 {136:32,}
maxmrqlatency = 29 
maxdqlatency = 0 
maxmflatency = 316 
averagemflatency = 264 
max_icnt2mem_latency = 36 
max_icnt2sh_latency = 5947 
mrq_lat_table:365 	38 	63 	61 	21 	0 	0 	0 	0 	0 	0 	0 	0 	0 	0 	0 	0 	0 	0 	0 	0 	0 	0 	0 	0 	0 	0 	0 	0 	0 	0 	0 	
dq_lat_table:0 	0 	0 	0 	0 	0 	0 	0 	0 	0 	0 	0 	0 	0 	0 	0 	0 	0 	0 	0 	0 	0 	0 	0 	0 	0 	0 	0 	0 	0 	0 	0 	
mf_lat_table:0 	0 	0 	0 	0 	0 	0 	29 	535 	0 	0 	0 	0 	0 	0 	0 	0 	0 	0 	0 	0 	0 	0 	0 	0 	0 	0 	0 	0 	0 	0 	0 	
icnt2mem_lat_table:0 	0 	0 	585 	8 	3 	0 	0 	0 	0 	0 	0 	0 	0 	0 	0 	0 	0 	0 	0 	0 	0 	0 	0 	
icnt2sh_lat_table:0 	0 	0 	339 	187 	12 	0 	0 	0 	0 	2 	9 	15 	0 	0 	0 	0 	0 	0 	0 	0 	0 	0 	0 	
mf_lat_pw_table:0 	0 	0 	0 	0 	0 	0 	5 	5 	0 	0 	0 	0 	0 	0 	0 	0 	0 	0 	0 	0 	0 	0 	0 	0 	0 	0 	0 	0 	0 	0 	0 	
maximum concurrent accesses to same row:
dram[0]:         1         0         0         0         0         0         0         0         0         0         0         0         0         0         0         0 
dram[1]:         0         0         0         0         0         0         0         0         0         0         0         0         0         0         0         0 
dram[2]:         0         0         0         0         0         0         0         0         0         0         0         0         0         0         0         0 
dram[3]:         0         0         0         0         0         0         0         0         0         0         0         0         0         0         0         0 
dram[4]:         0         0         0         0         0         0         0         0         0         0        22        22         0         0         0         0 
dram[5]:         0         0         0         0         0         0         0         0         0         0         0         0         0         0         0         0 
maximum service time to same row:
dram[0]:      1584         0      5929         0         0         0         0         0         0         0       954       915      1787      1779         0         0 
dram[1]:      1197         0         0         0         0         0         0         0         0         0       959       916      1797      1766         0      3990 
dram[2]:         0         0         0      3113         0      1632         0         0         0      4325       947       925      1787      1569         0         0 
dram[3]:         0         0         0      5122         0      4724         0         0         0         0       963       938      1800      1774         0         0 
dram[4]:         0      3916         0         0         0      5522         0         0         0         0      1272      2575      1763      1785      3182         0 
dram[5]:         0         0         0         0         0         0         0         0         0         0       919       944      1772      1797      5594         0 
average row accesses per activate:
dram[0]:  1.000000      -nan  2.000000      -nan      -nan      -nan      -nan      -nan      -nan      -nan 20.000000 22.000000 22.000000 22.000000      -nan      -nan 
dram[1]:  2.000000      -nan      -nan      -nan      -nan      -nan      -nan      -nan      -nan      -nan 20.000000 22.000000 24.000000 22.000000      -nan  3.000000 
dram[2]:      -nan      -nan      -nan  2.000000      -nan  1.000000      -nan      -nan      -nan  2.000000 20.000000 22.000000 22.000000 22.000000      -nan      -nan 
dram[3]:      -nan      -nan      -nan  2.000000      -nan  2.000000      -nan      -nan      -nan      -nan 20.000000 22.000000 22.000000 20.000000      -nan      -nan 
dram[4]:      -nan  2.000000      -nan      -nan      -nan  2.000000      -nan      -nan      -nan      -nan  8.333333 12.000000 22.000000 20.000000  2.000000      -nan 
dram[5]:      -nan      -nan      -nan      -nan      -nan      -nan      -nan      -nan      -nan      -nan 22.000000 22.000000 22.000000 20.000000  1.000000      -nan 
average row locality = 548/43 = 12.744186
number of total memory accesses made:
dram[0]:         0         0         0         0         0         0         0         0         0         0         0         0         0         0         0         0 
dram[1]:         0         0         0         0         0         0         0         0         0         0         0         0         0         0         0         0 
dram[2]:         0         0         0         0         0         0         0         0         0         0         0         0         0         0         0         0 
dram[3]:         0         0         0         0         0         0         0         0         0         0         0         0         0         0         0         0 
dram[4]:         0         0         0         0         0         0         0         0         0         0         0         0         0         0         0         0 
dram[5]:         0         0         0         0         0         0         0         0         0         0         0         0         0         0         0         0 
total accesses: 0
min_bank_accesses = 0!
min_chip_accesses = 0!
number of total read accesses:
dram[0]:         4         0         1         0         0         0         0         0         0         0        20        22        22        22         0         0 
dram[1]:         2         0         0         0         0         0         0         0         0         0        20        22        24        22         0         3 
dram[2]:         0         0         0         1         0         1         0         0         0         1        20        22        22        21         0         0 
dram[3]:         0         0         0         1         0         1         0         0         0         0        20        22        22        20         0         0 
dram[4]:         0         1         0         0         0         1         0         0         0         0        24        23        22        20         2         0 
dram[5]:         0         0         0         0         0         0         0         0         0         0        22        22        22        20         1         0 
total reads: 538
min_bank_accesses = 0!
chip skew: 93/86 = 1.08
number of total write accesses:
dram[0]:         0         0         1         0         0         0         0         0         0         0         0         0         0         0         0         0 
dram[1]:         0         0         0         0         0         0         0         0         0         0         0         0         0         0         0         0 
dram[2]:         0         0         0         1         0         0         0         0         0         1         0         0         0         1         0         0 
dram[3]:         0         0         0         1         0         1         0         0         0         0         0         0         0         0         0         0 
dram[4]:         0         1         0         0         0         1         0         0         0         0         1         1         0         0         0         0 
dram[5]:         0         0         0         0         0         0         0         0         0         0         0         0         0         0         0         0 
total reads: 10
min_bank_accesses = 0!
min_chip_accesses = 0!
average mf latency per bank:
dram[0]:       1055    none         125    none      none      none      none      none      none      none         267       270       275       268    none      none  
dram[1]:          0    none      none      none      none      none      none      none      none      none         273       270       269       270    none         262
dram[2]:     none      none      none         126    none         268    none      none      none         126       268       266       266       252    none      none  
dram[3]:     none      none      none         126    none         126    none      none      none      none         274       284       277       271    none      none  
dram[4]:     none         126    none      none      none         126    none      none      none      none         297       256       267       274       263    none  
dram[5]:     none      none      none      none      none      none      none      none      none      none         264       269       267       273       268    none  
maximum mf latency per bank:
dram[0]:        283         0       251         0         0         0         0         0         0         0       283       287       281       291         0         0
dram[1]:          0         0         0         0         0         0         0         0         0         0       287       292       305       316         0       268
dram[2]:          0         0         0       252         0       268         0         0         0       252       288       278       291       276         0         0
dram[3]:          0         0         0       252         0       252         0         0         0         0       277       301       284       308         0         0
dram[4]:          0       252         0         0         0       252         0         0         0         0       277       286       279       301       268         0
dram[5]:          0         0         0         0         0         0         0         0         0         0       277       284       296       302       268         0

Number of Memory Banks Accessed per Memory Operation per Warp (from 0):
0	0	0	0	0	0	0	0	0	0	0	0	0	0	0	0	0	0	0	0	0	0	0	0	0	0	0	0	0	0	0	0	0	0	0	0	0	0	0	0	0	0	0	0	0	0	0	0	0	0	0	0	0	0	0	0	0	0	0	0	0	0	0	0	0	0	0	0	0	0	0	0	0	0	0	0	0	0	0	0	0	0	0	0	0	0	0	0	0	0	0	0	0	0	0	0	
Average # of Memory Banks Accessed per Memory Operation per Warp=-nan

position of mrq chosen
0	0	0	0	0	0	0	0	0	0	0	0	0	0	0	0	

average position of mrq chosen = -nan
Memory Partition 0: 
Cache L2_bank_000:
MSHR contents
MSHR: tag=0x80234400, atomic=0 1 entries : 0x7fc626f9d120 :  mf: uid= 35855, sid01:w00, part=0, addr=0x80234440, load , size=32, unknown  status = IN_PARTITION_DRAM (5945), 

Cache L2_bank_001:
MSHR contents

In Dram Latency Queue (total = 0): 
DRAM[0]: 16 bks, busW=4 BL=8 CL=12, tRRD=2 tCCD=6, tRCD=12 tRAS=28 tRP=12 tRC=40
n_cmd=7851 n_nop=7656 n_act=9 n_pre=3 n_req=92 n_rd=182 n_write=1 bw_util=0.04662
n_activity=971 dram_eff=0.3769
bk0: 8a 7750i bk1: 0a 7847i bk2: 2a 7827i bk3: 0a 7848i bk4: 0a 7849i bk5: 0a 7850i bk6: 0a 7852i bk7: 0a 7852i bk8: 0a 7853i bk9: 0a 7853i bk10: 40a 7736i bk11: 44a 7671i bk12: 44a 7734i bk13: 44a 7674i bk14: 0a 7849i bk15: 0a 7850i 
dram_util_bins: 0 0 0 0 0 0 0 0 0 0
dram_eff_bins: 0 0 0 0 0 0 0 0 0 0
mrqq: max=4 avg=0.0412686
Memory Partition 1: 
Cache L2_bank_002:
MSHR contents

Cache L2_bank_003:
MSHR contents

In Dram Latency Queue (total = 0): 
DRAM[1]: 16 bks, busW=4 BL=8 CL=12, tRRD=2 tCCD=6, tRCD=12 tRAS=28 tRP=12 tRC=40
n_cmd=7851 n_nop=7659 n_act=6 n_pre=0 n_req=93 n_rd=186 n_write=0 bw_util=0.04738
n_activity=876 dram_eff=0.4247
bk0: 4a 7827i bk1: 0a 7847i bk2: 0a 7849i bk3: 0a 7849i bk4: 0a 7850i bk5: 0a 7850i bk6: 0a 7850i bk7: 0a 7852i bk8: 0a 7854i bk9: 0a 7854i bk10: 40a 7714i bk11: 44a 7672i bk12: 48a 7705i bk13: 44a 7652i bk14: 0a 7850i bk15: 6a 7825i 
dram_util_bins: 0 0 0 0 0 0 0 0 0 0
dram_eff_bins: 0 0 0 0 0 0 0 0 0 0
mrqq: max=4 avg=0.041396
Memory Partition 2: 
Cache L2_bank_004:
MSHR contents

Cache L2_bank_005:
MSHR contents

In Dram Latency Queue (total = 0): 
DRAM[2]: 16 bks, busW=4 BL=8 CL=12, tRRD=2 tCCD=6, tRCD=12 tRAS=28 tRP=12 tRC=40
n_cmd=7851 n_nop=7665 n_act=7 n_pre=0 n_req=91 n_rd=176 n_write=3 bw_util=0.0456
n_activity=884 dram_eff=0.405
bk0: 0a 7850i bk1: 0a 7851i bk2: 0a 7852i bk3: 2a 7829i bk4: 0a 7850i bk5: 2a 7834i bk6: 0a 7850i bk7: 0a 7852i bk8: 0a 7855i bk9: 2a 7832i bk10: 40a 7740i bk11: 44a 7700i bk12: 44a 7721i bk13: 42a 7702i bk14: 0a 7848i bk15: 0a 7848i 
dram_util_bins: 0 0 0 0 0 0 0 0 0 0
dram_eff_bins: 0 0 0 0 0 0 0 0 0 0
mrqq: max=1 avg=0.0175774
Memory Partition 3: 
Cache L2_bank_006:
MSHR contents

Cache L2_bank_007:
MSHR contents

In Dram Latency Queue (total = 0): 
DRAM[3]: 16 bks, busW=4 BL=8 CL=12, tRRD=2 tCCD=6, tRCD=12 tRAS=28 tRP=12 tRC=40
n_cmd=7851 n_nop=7671 n_act=6 n_pre=0 n_req=88 n_rd=172 n_write=2 bw_util=0.04433
n_activity=769 dram_eff=0.4525
bk0: 0a 7850i bk1: 0a 7851i bk2: 0a 7851i bk3: 2a 7830i bk4: 0a 7851i bk5: 2a 7828i bk6: 0a 7850i bk7: 0a 7852i bk8: 0a 7853i bk9: 0a 7854i bk10: 40a 7724i bk11: 44a 7628i bk12: 44a 7720i bk13: 40a 7667i bk14: 0a 7847i bk15: 0a 7847i 
dram_util_bins: 0 0 0 0 0 0 0 0 0 0
dram_eff_bins: 0 0 0 0 0 0 0 0 0 0
mrqq: max=3 avg=0.042415
Memory Partition 4: 
Cache L2_bank_008:
MSHR contents

Cache L2_bank_009:
MSHR contents

In Dram Latency Queue (total = 0): 
DRAM[4]: 16 bks, busW=4 BL=8 CL=12, tRRD=2 tCCD=6, tRCD=12 tRAS=28 tRP=12 tRC=40
n_cmd=7851 n_nop=7648 n_act=10 n_pre=3 n_req=97 n_rd=186 n_write=4 bw_util=0.0484
n_activity=934 dram_eff=0.4069
bk0: 0a 7846i bk1: 2a 7827i bk2: 0a 7850i bk3: 0a 7850i bk4: 0a 7851i bk5: 2a 7831i bk6: 0a 7853i bk7: 0a 7854i bk8: 0a 7856i bk9: 0a 7856i bk10: 48a 7668i bk11: 46a 7634i bk12: 44a 7711i bk13: 40a 7630i bk14: 4a 7826i bk15: 0a 7845i 
dram_util_bins: 0 0 0 0 0 0 0 0 0 0
dram_eff_bins: 0 0 0 0 0 0 0 0 0 0
mrqq: max=4 avg=0.0531143
Memory Partition 5: 
Cache L2_bank_010:
MSHR contents

Cache L2_bank_011:
MSHR contents

In Dram Latency Queue (total = 0): 
DRAM[5]: 16 bks, busW=4 BL=8 CL=12, tRRD=2 tCCD=6, tRCD=12 tRAS=28 tRP=12 tRC=40
n_cmd=7851 n_nop=7672 n_act=5 n_pre=0 n_req=87 n_rd=174 n_write=0 bw_util=0.04433
n_activity=744 dram_eff=0.4677
bk0: 0a 7847i bk1: 0a 7849i bk2: 0a 7849i bk3: 0a 7850i bk4: 0a 7850i bk5: 0a 7851i bk6: 0a 7851i bk7: 0a 7854i bk8: 0a 7854i bk9: 0a 7854i bk10: 44a 7723i bk11: 44a 7646i bk12: 44a 7720i bk13: 40a 7699i bk14: 2a 7832i bk15: 0a 7847i 
dram_util_bins: 0 0 0 0 0 0 0 0 0 0
dram_eff_bins: 0 0 0 0 0 0 0 0 0 0
mrqq: max=5 avg=0.043434

========= L2 cache stats =========
L2_cache_bank[0]: Access = 77, Miss = 47, Miss_rate = 0.610, Pending_hits = 6, Reservation_fails = 227
L2_cache_bank[1]: Access = 44, Miss = 44, Miss_rate = 1.000, Pending_hits = 0, Reservation_fails = 0
L2_cache_bank[2]: Access = 61, Miss = 46, Miss_rate = 0.754, Pending_hits = 3, Reservation_fails = 115
L2_cache_bank[3]: Access = 47, Miss = 47, Miss_rate = 1.000, Pending_hits = 0, Reservation_fails = 0
L2_cache_bank[4]: Access = 42, Miss = 42, Miss_rate = 1.000, Pending_hits = 0, Reservation_fails = 0
L2_cache_bank[5]: Access = 46, Miss = 46, Miss_rate = 1.000, Pending_hits = 0, Reservation_fails = 0
L2_cache_bank[6]: Access = 45, Miss = 42, Miss_rate = 0.933, Pending_hits = 0, Reservation_fails = 0
L2_cache_bank[7]: Access = 46, Miss = 44, Miss_rate = 0.957, Pending_hits = 0, Reservation_fails = 0
L2_cache_bank[8]: Access = 56, Miss = 48, Miss_rate = 0.857, Pending_hits = 0, Reservation_fails = 0
L2_cache_bank[9]: Access = 45, Miss = 45, Miss_rate = 1.000, Pending_hits = 0, Reservation_fails = 0
L2_cache_bank[10]: Access = 45, Miss = 45, Miss_rate = 1.000, Pending_hits = 0, Reservation_fails = 0
L2_cache_bank[11]: Access = 42, Miss = 42, Miss_rate = 1.000, Pending_hits = 0, Reservation_fails = 0
L2_total_cache_accesses = 596
L2_total_cache_misses = 538
L2_total_cache_miss_rate = 0.9027
L2_total_cache_pending_hits = 9
L2_total_cache_reservation_fails = 342
L2_total_cache_breakdown:
	L2_cache_stats_breakdown[GLOBAL_ACC_R][MISS] = 523
	L2_cache_stats_breakdown[CONST_ACC_R][HIT] = 11
	L2_cache_stats_breakdown[CONST_ACC_R][HIT_RESERVED] = 3
	L2_cache_stats_breakdown[CONST_ACC_R][MISS] = 1
	L2_cache_stats_breakdown[CONST_ACC_R][RESERVATION_FAIL] = 111
	L2_cache_stats_breakdown[GLOBAL_ACC_W][HIT] = 16
	L2_cache_stats_breakdown[GLOBAL_ACC_W][MISS] = 10
	L2_cache_stats_breakdown[INST_ACC_R][HIT] = 22
	L2_cache_stats_breakdown[INST_ACC_R][HIT_RESERVED] = 6
	L2_cache_stats_breakdown[INST_ACC_R][MISS] = 4
	L2_cache_stats_breakdown[INST_ACC_R][RESERVATION_FAIL] = 231
L2_cache_data_port_util = 0.002
L2_cache_fill_port_util = 0.030

icnt_total_pkts_mem_to_simt=2846
icnt_total_pkts_simt_to_mem=622
LD_mem_lat_dist  0 0 0 0 0 0 0 0 0 0 0 0 0 0 0 0 0 0 0 0 0 0 0 0 0 0 0
ST_mem_lat_dist  0 0 0 0 0 0 0 0 0 0 0 0 0 0 0 0 0 0 0 0 0 0 0 0 0 0 0
----------------------------Interconnect-DETAILS--------------------------------
Class 0:
Packet latency average = 10.1846
	minimum = 6
	maximum = 37
Network latency average = 9.63926
	minimum = 6
	maximum = 37
Slowest packet = 763
Flit latency average = 8.42013
	minimum = 6
	maximum = 34
Slowest flit = 14
Fragmentation average = 0
	minimum = 0
	maximum = 0
Injected packet rate average = 0.00742235
	minimum = 0.00588433 (at node 12)
	maximum = 0.0129455 (at node 15)
Accepted packet rate average = 0.00742235
	minimum = 0.00588433 (at node 12)
	maximum = 0.0129455 (at node 15)
Injected flit rate average = 0.0215946
	minimum = 0.00588433 (at node 12)
	maximum = 0.0576664 (at node 15)
Accepted flit rate average= 0.0215946
	minimum = 0.0070612 (at node 19)
	maximum = 0.0443847 (at node 1)
Injected packet length average = 2.9094
Accepted packet length average = 2.9094
Total in-flight flits = 0 (0 measured)
====== Overall Traffic Statistics ======
====== Traffic class 0 ======
Packet latency average = 10.1846 (1 samples)
	minimum = 6 (1 samples)
	maximum = 37 (1 samples)
Network latency average = 9.63926 (1 samples)
	minimum = 6 (1 samples)
	maximum = 37 (1 samples)
Flit latency average = 8.42013 (1 samples)
	minimum = 6 (1 samples)
	maximum = 34 (1 samples)
Fragmentation average = 0 (1 samples)
	minimum = 0 (1 samples)
	maximum = 0 (1 samples)
Injected packet rate average = 0.00742235 (1 samples)
	minimum = 0.00588433 (1 samples)
	maximum = 0.0129455 (1 samples)
Accepted packet rate average = 0.00742235 (1 samples)
	minimum = 0.00588433 (1 samples)
	maximum = 0.0129455 (1 samples)
Injected flit rate average = 0.0215946 (1 samples)
	minimum = 0.00588433 (1 samples)
	maximum = 0.0576664 (1 samples)
Accepted flit rate average = 0.0215946 (1 samples)
	minimum = 0.0070612 (1 samples)
	maximum = 0.0443847 (1 samples)
Injected packet size average = 2.9094 (1 samples)
Accepted packet size average = 2.9094 (1 samples)
Hops average = 1 (1 samples)
----------------------------END-of-Interconnect-DETAILS-------------------------


gpgpu_simulation_time = 0 days, 0 hrs, 0 min, 5 sec (5 sec)
[...]
traffic_breakdown_coretomem[INST_ACC_R] = 480 {8:60,}
traffic_breakdown_memtocore[CONST_ACC_R] = 1080 {72:15,}
traffic_breakdown_memtocore[GLOBAL_ACC_R] = 84323944 {136:620029,}
traffic_breakdown_memtocore[GLOBAL_ACC_W] = 3304848 {8:413106,}
traffic_breakdown_memtocore[INST_ACC_R] = 8160 {136:60,}
maxmrqlatency = 495 
maxdqlatency = 0 
maxmflatency = 1198 
averagemflatency = 396 
max_icnt2mem_latency = 883 
max_icnt2sh_latency = 760941 
mrq_lat_table:46511 	3938 	1381 	3937 	5396 	1105 	592 	329 	24 	0 	0 	0 	0 	0 	0 	0 	0 	0 	0 	0 	0 	0 	0 	0 	0 	0 	0 	0 	0 	0 	0 	0 	
dq_lat_table:0 	0 	0 	0 	0 	0 	0 	0 	0 	0 	0 	0 	0 	0 	0 	0 	0 	0 	0 	0 	0 	0 	0 	0 	0 	0 	0 	0 	0 	0 	0 	0 	
mf_lat_table:0 	0 	0 	0 	0 	0 	0 	132461 	709418 	191231 	40 	0 	0 	0 	0 	0 	0 	0 	0 	0 	0 	0 	0 	0 	0 	0 	0 	0 	0 	0 	0 	0 	
icnt2mem_lat_table:0 	0 	0 	84411 	30441 	79552 	322199 	244422 	268166 	4019 	0 	0 	0 	0 	0 	0 	0 	0 	0 	0 	0 	0 	0 	0 	
icnt2sh_lat_table:0 	0 	0 	37680 	293500 	271123 	17646 	95 	0 	0 	2 	9 	35 	912 	9245 	18989 	44221 	98674 	168211 	72808 	0 	0 	0 	0 	
mf_lat_pw_table:0 	0 	0 	0 	0 	0 	0 	98 	1429 	3 	0 	0 	0 	0 	0 	0 	0 	0 	0 	0 	0 	0 	0 	0 	0 	0 	0 	0 	0 	0 	0 	0 	
maximum concurrent accesses to same row:
dram[0]:        27        38        22        19        32        31        32        32        32        30        27        31        35        36        37        38 
dram[1]:        27        36        50        32        22        34        30        30        22        26        26        22        32        34        41        34 
dram[2]:        30        29        26        40        31        26        32        32        30        42        26        24        40        32        44        52 
dram[3]:        26        28        49        35        42        36        27        28        34        22        24        23        27        34        35        33 
dram[4]:        32        31        39        34        32        30        32        32        32        32        26        22        37        32        35        34 
dram[5]:        34        35        47        27        22        27        30        26        28        19        22        24        32        32        32        34 
maximum service time to same row:
dram[0]:     62282     59002     70671     43752     48928     51281     39107     41799     64770     52869     41725     46929    103421     56755     94950     95796 
dram[1]:     50378     66903     66068     54831     73591    120939     44762     42463     43881     70296     58760     65991     54957     90460     70151     94905 
dram[2]:     58043     39905     65591     70072     66235     46256     44743     52071     39856     63328     46075     81549     96047     59493    132594    149979 
dram[3]:     59360     36188     64741    104069     49746     42984     62416     55052     44617     32593     49362     53915    102500     79831     71649     68516 
dram[4]:     60396     55298     56067     48579     74175     74207     70375     65190     40119     49775     55909     71931    108852     75306     65358     93739 
dram[5]:     47309     60821    116930    104534    133425     54129     56992     53831     54557     38514     50637     41625     83425     85624    140595    132867 
average row accesses per activate:
dram[0]:  3.707182  3.276596  3.193416  3.176471  4.428571  4.415493  3.526786  3.469565  4.682119  4.015625  3.470900  3.182266  4.299066  4.150443  7.490909  5.671052 
dram[1]:  3.800000  3.851485  3.897959  3.962963  2.806950  3.134529  3.277056  3.106061  3.126923  3.281512  3.573604  3.256039  3.784615  4.140496  5.907895  6.739130 
dram[2]:  3.384259  3.457944  3.717949  3.928571  4.260870  3.873494  4.291667  4.935484  3.811224  3.491071  2.848739  3.185714  4.093220  3.983740  7.196721  7.571429 
dram[3]:  3.146825  3.152000  3.884817  3.841837  4.083832  3.586735  4.071795  3.776119  3.521552  3.120482  2.804082  2.870130  4.121951  4.348214  5.637500  5.147727 
dram[4]:  4.583893  3.860215  3.693069  3.408163  3.865031  3.918605  3.621212  3.969697  4.262295  4.401130  3.345361  3.666667  4.256410  4.061403  8.094339  8.102041 
dram[5]:  3.512563  3.268595  3.019531  2.936567  4.099379  3.254717  4.257310  3.890000  3.438914  3.007380  3.177570  3.105023  4.311927  4.162393  7.711538  6.803279 
average row locality = 63213/16910 = 3.738202
number of total memory accesses made:
dram[0]:         0         0         0         0         0         0         0         0         0         0         0         0         0         0         0         0 
dram[1]:         0         0         0         0         0         0         0         0         0         0         0         0         0         0         0         0 
dram[2]:         0         0         0         0         0         0         0         0         0         0         0         0         0         0         0         0 
dram[3]:         0         0         0         0         0         0         0         0         0         0         0         0         0         0         0         0 
dram[4]:         0         0         0         0         0         0         0         0         0         0         0         0         0         0         0         0 
dram[5]:         0         0         0         0         0         0         0         0         0         0         0         0         0         0         0         0 
total accesses: 0
min_bank_accesses = 0!
min_chip_accesses = 0!
number of total read accesses:
dram[0]:       489       530       542       531       492       496       607       601       546       578       528       527       434       443       412       430 
dram[1]:       540       548       521       521       535       543       595       636       611       586       542       540       457       461       449       463 
dram[2]:       514       512       520       501       461       498       554       583       570       593       537       544       457       458       438       423 
dram[3]:       546       540       521       522       513       530       593       580       601       588       555       534       464       454       451       451 
dram[4]:       492       506       520       492       486       506       556       523       584       578       522       495       465       430       429       397 
dram[5]:       497       553       550       552       500       526       565       593       582       599       550       542       436       450       401       415 
total reads: 49632
bank skew: 636/397 = 1.60
chip skew: 8548/7981 = 1.07
number of total write accesses:
dram[0]:       182       240       234       225       128       131       183       197       161       193       128       119        26        26         0         1 
dram[1]:       239       230       243       228       192       156       162       184       202       195       162       134        35        40         0         2 
dram[2]:       217       228       205       214       127       145       167       182       177       189       141       125        26        32         1         1 
dram[3]:       247       248       221       231       169       173       201       179       216       189       132       129        43        33         0         2 
dram[4]:       191       212       226       176       144       168       161       132       196       201       127       110        33        33         0         0 
dram[5]:       202       238       223       235       160       164       163       185       178       216       130       138        34        37         0         0 
total reads: 13581
min_bank_accesses = 0!
chip skew: 2413/2110 = 1.14
average mf latency per bank:
dram[0]:       2949      2639      2892      3066      3676      3683      3097      2988      3073      2912      6314      6614     14028     13878     21732     21242
dram[1]:       2679      2794      3055      3214      3311      3520      3324      3150      2842      2991      5879      6644     13296     13712     20860     20725
dram[2]:       2802      2764      3119      3078      3980      3688      3375      3118      3109      2953      6155      6707     13555     14002     20546     21830
dram[3]:       2692      2601      3033      2982      3408      3356      3161      3231      2765      2844      6209      6597     13026     14110     20573     21021
dram[4]:       3889      2850      3908      3372      4901      3547      4565      3665      3865      2819     39870      7313     17794     14936     28657     23345
dram[5]:       2831      2663      2874      3012      3404      3433      3080      3153      2863      2802      6272      6541     13629     14206     21921     22600
maximum mf latency per bank:
dram[0]:        936       952       905       905       990       851       979       920       884       912       895       899       888       969       901       891
dram[1]:        931      1069       898       925       900       928       962      1000       914       981       948       985       967       922       915      1014
dram[2]:        993       880       858       923       882       898       983       919       875      1046      1021       921       886      1073       961       976
dram[3]:       1021       901      1021       955       861       978       898       989       989       874       885      1041       968       944       940       975
dram[4]:       1198       879      1146       946      1013       910      1151      1010      1162       930      1140       930      1108       896      1035       909
dram[5]:        870      1156       898       890       883       949       874       981       962       987       922       895       921       873      1000       993

Number of Memory Banks Accessed per Memory Operation per Warp (from 0):
0	0	0	0	0	0	0	0	0	0	0	0	0	0	0	0	0	0	0	0	0	0	0	0	0	0	0	0	0	0	0	0	0	0	0	0	0	0	0	0	0	0	0	0	0	0	0	0	0	0	0	0	0	0	0	0	0	0	0	0	0	0	0	0	0	0	0	0	0	0	0	0	0	0	0	0	0	0	0	0	0	0	0	0	0	0	0	0	0	0	0	0	0	0	0	0	
Average # of Memory Banks Accessed per Memory Operation per Warp=-nan

position of mrq chosen
0	0	0	0	0	0	0	0	0	0	0	0	0	0	0	0	

average position of mrq chosen = -nan
Memory Partition 0: 
Cache L2_bank_000:
MSHR contents

Cache L2_bank_001:
MSHR contents

In Dram Latency Queue (total = 0): 
DRAM[0]: 16 bks, busW=4 BL=8 CL=12, tRRD=2 tCCD=6, tRCD=12 tRAS=28 tRP=12 tRC=40
n_cmd=1007721 n_nop=982710 n_act=2719 n_pre=2703 n_req=10360 n_rd=16372 n_write=3217 bw_util=0.03888
n_activity=167028 dram_eff=0.2346
bk0: 978a 998019i bk1: 1060a 996388i bk2: 1084a 995665i bk3: 1062a 995247i bk4: 984a 999405i bk5: 992a 999404i bk6: 1214a 995478i bk7: 1202a 994926i bk8: 1092a 997516i bk9: 1156a 996402i bk10: 1056a 997641i bk11: 1054a 997232i bk12: 868a 1001185i bk13: 886a 1000922i bk14: 824a 1003319i bk15: 860a 1002679i 
dram_util_bins: 0 0 0 0 0 0 0 0 0 0
dram_eff_bins: 0 0 0 0 0 0 0 0 0 0
mrqq: max=16 avg=0.0878051
Memory Partition 1: 
Cache L2_bank_002:
MSHR contents

Cache L2_bank_003:
MSHR contents

In Dram Latency Queue (total = 0): 
DRAM[1]: 16 bks, busW=4 BL=8 CL=12, tRRD=2 tCCD=6, tRCD=12 tRAS=28 tRP=12 tRC=40
n_cmd=1007721 n_nop=980983 n_act=3067 n_pre=3051 n_req=10952 n_rd=17096 n_write=3524 bw_util=0.04092
n_activity=182300 dram_eff=0.2262
bk0: 1080a 997457i bk1: 1096a 997305i bk2: 1042a 996642i bk3: 1042a 997560i bk4: 1070a 995992i bk5: 1086a 997314i bk6: 1190a 996467i bk7: 1272a 995038i bk8: 1222a 995260i bk9: 1172a 995841i bk10: 1084a 997797i bk11: 1080a 997283i bk12: 914a 1001156i bk13: 922a 1000912i bk14: 898a 1003108i bk15: 926a 1003374i 
dram_util_bins: 0 0 0 0 0 0 0 0 0 0
dram_eff_bins: 0 0 0 0 0 0 0 0 0 0
mrqq: max=15 avg=0.0553606
Memory Partition 2: 
Cache L2_bank_004:
MSHR contents

Cache L2_bank_005:
MSHR contents

In Dram Latency Queue (total = 0): 
DRAM[2]: 16 bks, busW=4 BL=8 CL=12, tRRD=2 tCCD=6, tRCD=12 tRAS=28 tRP=12 tRC=40
n_cmd=1007721 n_nop=982881 n_act=2660 n_pre=2644 n_req=10340 n_rd=16326 n_write=3210 bw_util=0.03877
n_activity=164705 dram_eff=0.2372
bk0: 1028a 997471i bk1: 1024a 996744i bk2: 1040a 996484i bk3: 1002a 997119i bk4: 922a 1000418i bk5: 996a 998691i bk6: 1108a 997257i bk7: 1166a 997265i bk8: 1140a 997280i bk9: 1186a 995671i bk10: 1074a 996974i bk11: 1088a 997286i bk12: 914a 1000806i bk13: 916a 1000343i bk14: 876a 1003147i bk15: 846a 1003483i 
dram_util_bins: 0 0 0 0 0 0 0 0 0 0
dram_eff_bins: 0 0 0 0 0 0 0 0 0 0
mrqq: max=16 avg=0.0835588
Memory Partition 3: 
Cache L2_bank_006:
MSHR contents

Cache L2_bank_007:
MSHR contents

In Dram Latency Queue (total = 0): 
DRAM[3]: 16 bks, busW=4 BL=8 CL=12, tRRD=2 tCCD=6, tRCD=12 tRAS=28 tRP=12 tRC=40
n_cmd=1007721 n_nop=981303 n_act=3008 n_pre=2992 n_req=10856 n_rd=16886 n_write=3532 bw_util=0.04052
n_activity=178434 dram_eff=0.2289
bk0: 1092a 995636i bk1: 1080a 995461i bk2: 1042a 997143i bk3: 1044a 997252i bk4: 1026a 998837i bk5: 1060a 997706i bk6: 1186a 996804i bk7: 1160a 997047i bk8: 1202a 995911i bk9: 1176a 996108i bk10: 1110a 997038i bk11: 1068a 996906i bk12: 928a 1001016i bk13: 908a 1001413i bk14: 902a 1003175i bk15: 902a 1003089i 
dram_util_bins: 0 0 0 0 0 0 0 0 0 0
dram_eff_bins: 0 0 0 0 0 0 0 0 0 0
mrqq: max=10 avg=0.0496457
Memory Partition 4: 
Cache L2_bank_008:
MSHR contents

Cache L2_bank_009:
MSHR contents

In Dram Latency Queue (total = 0): 
DRAM[4]: 16 bks, busW=4 BL=8 CL=12, tRRD=2 tCCD=6, tRCD=12 tRAS=28 tRP=12 tRC=40
n_cmd=1007721 n_nop=983701 n_act=2483 n_pre=2467 n_req=10091 n_rd=15962 n_write=3108 bw_util=0.03785
n_activity=163177 dram_eff=0.2337
bk0: 984a 999501i bk1: 1012a 997543i bk2: 1040a 997319i bk3: 984a 998112i bk4: 972a 999189i bk5: 1012a 997049i bk6: 1112a 996580i bk7: 1046a 997848i bk8: 1168a 996143i bk9: 1156a 996046i bk10: 1044a 997712i bk11: 990a 998736i bk12: 930a 1000426i bk13: 860a 1000598i bk14: 858a 1003038i bk15: 794a 1003692i 
dram_util_bins: 0 0 0 0 0 0 0 0 0 0
dram_eff_bins: 0 0 0 0 0 0 0 0 0 0
mrqq: max=16 avg=0.092737
Memory Partition 5: 
Cache L2_bank_010:
MSHR contents

Cache L2_bank_011:
MSHR contents

In Dram Latency Queue (total = 0): 
DRAM[5]: 16 bks, busW=4 BL=8 CL=12, tRRD=2 tCCD=6, tRCD=12 tRAS=28 tRP=12 tRC=40
n_cmd=1007721 n_nop=981764 n_act=2973 n_pre=2957 n_req=10614 n_rd=16622 n_write=3405 bw_util=0.03975
n_activity=175759 dram_eff=0.2279
bk0: 994a 997338i bk1: 1106a 995867i bk2: 1100a 995398i bk3: 1104a 994415i bk4: 1000a 998289i bk5: 1052a 996809i bk6: 1130a 997512i bk7: 1186a 995743i bk8: 1164a 996675i bk9: 1198a 994509i bk10: 1100a 997347i bk11: 1084a 996704i bk12: 872a 1001305i bk13: 900a 1001211i bk14: 802a 1003677i bk15: 830a 1003693i 
dram_util_bins: 0 0 0 0 0 0 0 0 0 0
dram_eff_bins: 0 0 0 0 0 0 0 0 0 0
mrqq: max=16 avg=0.0677846

========= L2 cache stats =========
L2_cache_bank[0]: Access = 81970, Miss = 4050, Miss_rate = 0.049, Pending_hits = 13, Reservation_fails = 517
L2_cache_bank[1]: Access = 82618, Miss = 4136, Miss_rate = 0.050, Pending_hits = 13, Reservation_fails = 724
L2_cache_bank[2]: Access = 81905, Miss = 4250, Miss_rate = 0.052, Pending_hits = 21, Reservation_fails = 116
L2_cache_bank[3]: Access = 83372, Miss = 4298, Miss_rate = 0.052, Pending_hits = 13, Reservation_fails = 0
L2_cache_bank[4]: Access = 81843, Miss = 4051, Miss_rate = 0.049, Pending_hits = 10, Reservation_fails = 108
L2_cache_bank[5]: Access = 83028, Miss = 4112, Miss_rate = 0.050, Pending_hits = 6, Reservation_fails = 584
L2_cache_bank[6]: Access = 82648, Miss = 4244, Miss_rate = 0.051, Pending_hits = 20, Reservation_fails = 1
L2_cache_bank[7]: Access = 83164, Miss = 4199, Miss_rate = 0.050, Pending_hits = 7, Reservation_fails = 1
L2_cache_bank[8]: Access = 123132, Miss = 4054, Miss_rate = 0.033, Pending_hits = 10, Reservation_fails = 396
L2_cache_bank[9]: Access = 83529, Miss = 3927, Miss_rate = 0.047, Pending_hits = 15, Reservation_fails = 467
L2_cache_bank[10]: Access = 82544, Miss = 4081, Miss_rate = 0.049, Pending_hits = 13, Reservation_fails = 3
L2_cache_bank[11]: Access = 83457, Miss = 4230, Miss_rate = 0.051, Pending_hits = 9, Reservation_fails = 0
L2_total_cache_accesses = 1033210
L2_total_cache_misses = 49632
L2_total_cache_miss_rate = 0.0480
L2_total_cache_pending_hits = 150
L2_total_cache_reservation_fails = 2917
L2_total_cache_breakdown:
	L2_cache_stats_breakdown[GLOBAL_ACC_R][HIT] = 577433
	L2_cache_stats_breakdown[GLOBAL_ACC_R][HIT_RESERVED] = 22
	L2_cache_stats_breakdown[GLOBAL_ACC_R][MISS] = 42574
	L2_cache_stats_breakdown[GLOBAL_ACC_R][RESERVATION_FAIL] = 2566
	L2_cache_stats_breakdown[CONST_ACC_R][HIT] = 11
	L2_cache_stats_breakdown[CONST_ACC_R][HIT_RESERVED] = 3
	L2_cache_stats_breakdown[CONST_ACC_R][MISS] = 1
	L2_cache_stats_breakdown[CONST_ACC_R][RESERVATION_FAIL] = 111
	L2_cache_stats_breakdown[GLOBAL_ACC_W][HIT] = 405934
	L2_cache_stats_breakdown[GLOBAL_ACC_W][HIT_RESERVED] = 119
	L2_cache_stats_breakdown[GLOBAL_ACC_W][MISS] = 7053
	L2_cache_stats_breakdown[GLOBAL_ACC_W][RESERVATION_FAIL] = 9
	L2_cache_stats_breakdown[INST_ACC_R][HIT] = 50
	L2_cache_stats_breakdown[INST_ACC_R][HIT_RESERVED] = 6
	L2_cache_stats_breakdown[INST_ACC_R][MISS] = 4
	L2_cache_stats_breakdown[INST_ACC_R][RESERVATION_FAIL] = 231
L2_cache_data_port_util = 0.299
L2_cache_fill_port_util = 0.022

icnt_total_pkts_mem_to_simt=3513596
icnt_total_pkts_simt_to_mem=1446922
LD_mem_lat_dist  0 0 0 0 0 0 0 0 0 0 0 0 0 0 0 0 0 0 0 0 0 0 0 0 0 0 0
ST_mem_lat_dist  0 0 0 0 0 0 0 0 0 0 0 0 0 0 0 0 0 0 0 0 0 0 0 0 0 0 0
----------------------------Interconnect-DETAILS--------------------------------
Class 0:
Packet latency average = 9.5942
	minimum = 6
	maximum = 32
Network latency average = 8.96377
	minimum = 6
	maximum = 27
Slowest packet = 2065733
Flit latency average = 7.44548
	minimum = 6
	maximum = 23
Slowest flit = 4958295
Fragmentation average = 0
	minimum = 0
	maximum = 0
Injected packet rate average = 0.0252312
	minimum = 0.0211566 (at node 0)
	maximum = 0.0310296 (at node 18)
Accepted packet rate average = 0.0252312
	minimum = 0.0211566 (at node 0)
	maximum = 0.0310296 (at node 18)
Injected flit rate average = 0.0756935
	minimum = 0.0211566 (at node 0)
	maximum = 0.155148 (at node 18)
Accepted flit rate average= 0.0756935
	minimum = 0.0253879 (at node 15)
	maximum = 0.123413 (at node 7)
Injected packet length average = 3
Accepted packet length average = 3
Total in-flight flits = 0 (0 measured)
====== Overall Traffic Statistics ======
====== Traffic class 0 ======
Packet latency average = 32.4562 (9 samples)
	minimum = 6 (9 samples)
	maximum = 295.556 (9 samples)
Network latency average = 21.1877 (9 samples)
	minimum = 6 (9 samples)
	maximum = 228.889 (9 samples)
Flit latency average = 15.9993 (9 samples)
	minimum = 6 (9 samples)
	maximum = 226.556 (9 samples)
Fragmentation average = 0.0301729 (9 samples)
	minimum = 0 (9 samples)
	maximum = 151.222 (9 samples)
Injected packet rate average = 0.0520653 (9 samples)
	minimum = 0.0397357 (9 samples)
	maximum = 0.0942067 (9 samples)
Accepted packet rate average = 0.0520653 (9 samples)
	minimum = 0.0397357 (9 samples)
	maximum = 0.0942067 (9 samples)
Injected flit rate average = 0.129631 (9 samples)
	minimum = 0.0524257 (9 samples)
	maximum = 0.25433 (9 samples)
Accepted flit rate average = 0.129631 (9 samples)
	minimum = 0.068348 (9 samples)
	maximum = 0.2206 (9 samples)
Injected packet size average = 2.48977 (9 samples)
Accepted packet size average = 2.48977 (9 samples)
Hops average = 1 (9 samples)
----------------------------END-of-Interconnect-DETAILS-------------------------


gpgpu_simulation_time = 0 days, 0 hrs, 8 min, 7 sec (487 sec)
gpgpu_simulation_rate = 34516 (inst/sec)
gpgpu_simulation_rate = 1567 (cycle/sec)
GPGPU-Sim: synchronize waiting for inactive GPU simulation
GPGPU-Sim API: Stream Manager State
GPGPU-Sim: detected inactive GPU simulation thread
Kernel Executed 9 times
Processing time: 486502.593750 (ms)
Result stored in result.txt
