

        *** GPGPU-Sim Simulator Version 3.2.2  [build 0] ***


GPGPU-Sim PTX: simulation mode 0 (can change with PTX_SIM_MODE_FUNC environment variable:
               1=functional simulation only, 0=detailed performance simulator)
GPGPU-Sim: Configuration options:

-network_mode                           1 # Interconnection network mode
-inter_config_file   config_fermi_islip.icnt # Interconnection network config file
-gpgpu_ptx_use_cuobjdump                    1 # Use cuobjdump to extract ptx and sass from binaries
-gpgpu_experimental_lib_support                    0 # Try to extract code from cuda libraries [Broken because of unknown cudaGetExportTable]
-gpgpu_ptx_convert_to_ptxplus                    0 # Convert SASS (native ISA) to ptxplus and run ptxplus
-gpgpu_ptx_force_max_capability                   20 # Force maximum compute capability
-gpgpu_ptx_inst_debug_to_file                    0 # Dump executed instructions' debug information to file
-gpgpu_ptx_inst_debug_file       inst_debug.txt # Executed instructions' debug output file
-gpgpu_ptx_inst_debug_thread_uid                    1 # Thread UID for executed instructions' debug output
-gpgpu_simd_model                       1 # 1 = post-dominator
-gpgpu_shader_core_pipeline              1536:32 # shader core pipeline config, i.e., {<nthread>:<warpsize>}
-gpgpu_tex_cache:l1  4:128:24,L:R:m:N:L,F:128:4,128:2 # per-shader L1 texture cache  (READ-ONLY) config  {<nsets>:<bsize>:<assoc>,<rep>:<wr>:<alloc>:<wr_alloc>,<mshr>:<N>:<merge>,<mq>:<rf>}
-gpgpu_const_cache:l1 64:64:2,L:R:f:N:L,A:2:32,4 # per-shader L1 constant memory cache  (READ-ONLY) config  {<nsets>:<bsize>:<assoc>,<rep>:<wr>:<alloc>:<wr_alloc>,<mshr>:<N>:<merge>,<mq>} 
-gpgpu_cache:il1     4:128:4,L:R:f:N:L,A:2:32,4 # shader L1 instruction cache config  {<nsets>:<bsize>:<assoc>,<rep>:<wr>:<alloc>:<wr_alloc>,<mshr>:<N>:<merge>,<mq>} 
-gpgpu_cache:dl1     32:128:1,L:L:m:N:H,A:32:8,8 # per-shader L1 data cache config  {<nsets>:<bsize>:<assoc>,<rep>:<wr>:<alloc>:<wr_alloc>,<mshr>:<N>:<merge>,<mq> | none}
-gpgpu_cache:dl1PrefL1                 none # per-shader L1 data cache config  {<nsets>:<bsize>:<assoc>,<rep>:<wr>:<alloc>:<wr_alloc>,<mshr>:<N>:<merge>,<mq> | none}
-gpgpu_cache:dl1PreShared                 none # per-shader L1 data cache config  {<nsets>:<bsize>:<assoc>,<rep>:<wr>:<alloc>:<wr_alloc>,<mshr>:<N>:<merge>,<mq> | none}
-gmem_skip_L1D                          0 # global memory access skip L1D cache (implements -Xptxas -dlcm=cg, default=no skip)
-gpgpu_perfect_mem                      0 # enable perfect memory mode (no cache miss)
-n_regfile_gating_group                    4 # group of lanes that should be read/written together)
-gpgpu_clock_gated_reg_file                    0 # enable clock gated reg file for power calculations
-gpgpu_clock_gated_lanes                    0 # enable clock gated lanes for power calculations
-gpgpu_shader_registers                32768 # Number of registers per shader core. Limits number of concurrent CTAs. (default 8192)
-gpgpu_shader_cta                       8 # Maximum number of concurrent CTAs in shader (default 8)
-gpgpu_num_cta_barriers                   16 # Maximum number of named barriers per CTA (default 16)
-gpgpu_n_clusters                      15 # number of processing clusters
-gpgpu_n_cores_per_cluster                    1 # number of simd cores per cluster
-gpgpu_n_cluster_ejection_buffer_size                    8 # number of packets in ejection buffer
-gpgpu_n_ldst_response_buffer_size                    2 # number of response packets in ld/st unit ejection buffer
-gpgpu_shmem_size                   16384 # Size of shared memory per shader core (default 16kB)
-gpgpu_shmem_size                   49152 # Size of shared memory per shader core (default 16kB)
-gpgpu_shmem_size_PrefL1                16384 # Size of shared memory per shader core (default 16kB)
-gpgpu_shmem_size_PrefShared                16384 # Size of shared memory per shader core (default 16kB)
-gpgpu_shmem_num_banks                   32 # Number of banks in the shared memory in each shader core (default 16)
-gpgpu_shmem_limited_broadcast                    0 # Limit shared memory to do one broadcast per cycle (default on)
-gpgpu_shmem_warp_parts                    1 # Number of portions a warp is divided into for shared memory bank conflict check 
-gpgpu_warpdistro_shader                   -1 # Specify which shader core to collect the warp size distribution from
-gpgpu_warp_issue_shader                    0 # Specify which shader core to collect the warp issue distribution from
-gpgpu_local_mem_map                    1 # Mapping from local memory space address to simulated GPU physical address space (default = enabled)
-gpgpu_num_reg_banks                   16 # Number of register banks (default = 8)
-gpgpu_reg_bank_use_warp_id                    0 # Use warp ID in mapping registers to banks (default = off)
-gpgpu_operand_collector_num_units_sp                    6 # number of collector units (default = 4)
-gpgpu_operand_collector_num_units_sfu                    8 # number of collector units (default = 4)
-gpgpu_operand_collector_num_units_mem                    2 # number of collector units (default = 2)
-gpgpu_operand_collector_num_units_gen                    0 # number of collector units (default = 0)
-gpgpu_operand_collector_num_in_ports_sp                    2 # number of collector unit in ports (default = 1)
-gpgpu_operand_collector_num_in_ports_sfu                    1 # number of collector unit in ports (default = 1)
-gpgpu_operand_collector_num_in_ports_mem                    1 # number of collector unit in ports (default = 1)
-gpgpu_operand_collector_num_in_ports_gen                    0 # number of collector unit in ports (default = 0)
-gpgpu_operand_collector_num_out_ports_sp                    2 # number of collector unit in ports (default = 1)
-gpgpu_operand_collector_num_out_ports_sfu                    1 # number of collector unit in ports (default = 1)
-gpgpu_operand_collector_num_out_ports_mem                    1 # number of collector unit in ports (default = 1)
-gpgpu_operand_collector_num_out_ports_gen                    0 # number of collector unit in ports (default = 0)
-gpgpu_coalesce_arch                   13 # Coalescing arch (default = 13, anything else is off for now)
-gpgpu_num_sched_per_core                    2 # Number of warp schedulers per core
-gpgpu_max_insn_issue_per_warp                    1 # Max number of instructions that can be issued per warp in one cycle by scheduler
-gpgpu_simt_core_sim_order                    1 # Select the simulation order of cores in a cluster (0=Fix, 1=Round-Robin)
-gpgpu_pipeline_widths        2,1,1,2,1,1,2 # Pipeline widths ID_OC_SP,ID_OC_SFU,ID_OC_MEM,OC_EX_SP,OC_EX_SFU,OC_EX_MEM,EX_WB
-gpgpu_num_sp_units                     2 # Number of SP units (default=1)
-gpgpu_num_sfu_units                    1 # Number of SF units (default=1)
-gpgpu_num_mem_units                    1 # Number if ldst units (default=1) WARNING: not hooked up to anything
-gpgpu_scheduler                      gto # Scheduler configuration: < lrr | gto | two_level_active > If two_level_active:<num_active_warps>:<inner_prioritization>:<outer_prioritization>For complete list of prioritization values see shader.h enum scheduler_prioritization_typeDefault: gto
-gpgpu_dram_scheduler                    1 # 0 = fifo, 1 = FR-FCFS (defaul)
-gpgpu_dram_partition_queues              8:8:8:8 # i2$:$2d:d2$:$2i
-l2_ideal                               0 # Use a ideal L2 cache that always hit
-gpgpu_cache:dl2     64:128:8,L:B:m:W:L,A:32:4,4:0,32 # unified banked L2 data cache config  {<nsets>:<bsize>:<assoc>,<rep>:<wr>:<alloc>:<wr_alloc>,<mshr>:<N>:<merge>,<mq>}
-gpgpu_cache:dl2_texture_only                    0 # L2 cache used for texture only
-gpgpu_n_mem                            6 # number of memory modules (e.g. memory controllers) in gpu
-gpgpu_n_sub_partition_per_mchannel                    2 # number of memory subpartition in each memory module
-gpgpu_n_mem_per_ctrlr                    2 # number of memory chips per memory controller
-gpgpu_memlatency_stat                   14 # track and display latency statistics 0x2 enables MC, 0x4 enables queue logs
-gpgpu_frfcfs_dram_sched_queue_size                   16 # 0 = unlimited (default); # entries per chip
-gpgpu_dram_return_queue_size                  116 # 0 = unlimited (default); # entries per chip
-gpgpu_dram_buswidth                    4 # default = 4 bytes (8 bytes per cycle at DDR)
-gpgpu_dram_burst_length                    8 # Burst length of each DRAM request (default = 4 data bus cycle)
-dram_data_command_freq_ratio                    4 # Frequency ratio between DRAM data bus and command bus (default = 2 times, i.e. DDR)
-gpgpu_dram_timing_opt nbk=16:CCD=2:RRD=6:RCD=12:RAS=28:RP=12:RC=40: CL=12:WL=4:CDLR=5:WR=12:nbkgrp=4:CCDL=3:RTPL=2 # DRAM timing parameters = {nbk:tCCD:tRRD:tRCD:tRAS:tRP:tRC:CL:WL:tCDLR:tWR:nbkgrp:tCCDL:tRTPL}
-rop_latency                          120 # ROP queue latency (default 85)
-dram_latency                         100 # DRAM latency (default 30)
-gpgpu_mem_addr_mapping dramid@8;00000000.00000000.00000000.00000000.0000RRRR.RRRRRRRR.BBBCCCCB.CCSSSSSS # mapping memory address to dram model {dramid@<start bit>;<memory address map>}
-gpgpu_mem_addr_test                    0 # run sweep test to check address mapping for aliased address
-gpgpu_mem_address_mask                    1 # 0 = old addressing mask, 1 = new addressing mask, 2 = new add. mask + flipped bank sel and chip sel bits
-gpuwattch_xml_file  gpuwattch_gtx480.xml # GPUWattch XML file
-power_simulation_enabled                    1 # Turn on power simulator (1=On, 0=Off)
-power_per_cycle_dump                    0 # Dump detailed power output each cycle
-power_trace_enabled                    0 # produce a file for the power trace (1=On, 0=Off)
-power_trace_zlevel                     6 # Compression level of the power trace output log (0=no comp, 9=highest)
-steady_power_levels_enabled                    0 # produce a file for the steady power levels (1=On, 0=Off)
-steady_state_definition                  8:4 # allowed deviation:number of samples
-gpgpu_max_cycle                        0 # terminates gpu simulation early (0 = no limit)
-gpgpu_max_insn                         0 # terminates gpu simulation early (0 = no limit)
-gpgpu_max_cta                          0 # terminates gpu simulation early (0 = no limit)
-gpgpu_runtime_stat                   500 # display runtime statistics such as dram utilization {<freq>:<flag>}
-liveness_message_freq                    1 # Minimum number of seconds between simulation liveness messages (0 = always print)
-gpgpu_flush_l1_cache                    0 # Flush L1 cache at the end of each kernel call
-gpgpu_flush_l2_cache                    0 # Flush L2 cache at the end of each kernel call
-gpgpu_deadlock_detect                    1 # Stop the simulation at deadlock (1=on (default), 0=off)
-gpgpu_ptx_instruction_classification                    0 # if enabled will classify ptx instruction types per kernel (Max 255 kernels now)
-gpgpu_ptx_sim_mode                     0 # Select between Performance (default) or Functional simulation (1)
-gpgpu_clock_domains 700.0:700.0:700.0:924.0 # Clock Domain Frequencies in MhZ {<Core Clock>:<ICNT Clock>:<L2 Clock>:<DRAM Clock>}
-gpgpu_max_concurrent_kernel                    8 # maximum kernels that can run concurrently on GPU
-gpgpu_cflog_interval                    0 # Interval between each snapshot in control flow logger
-visualizer_enabled                     0 # Turn on visualizer output (1=On, 0=Off)
-visualizer_outputfile                 NULL # Specifies the output log file for visualizer
-visualizer_zlevel                      6 # Compression level of the visualizer output log (0=no comp, 9=highest)
-trace_enabled                          0 # Turn on traces
-trace_components                    none # comma seperated list of traces to enable. Complete list found in trace_streams.tup. Default none
-trace_sampling_core                    0 # The core which is printed using CORE_DPRINTF. Default 0
-trace_sampling_memory_partition                   -1 # The memory partition which is printed using MEMPART_DPRINTF. Default -1 (i.e. all)
-enable_ptx_file_line_stats                    1 # Turn on PTX source line statistic profiling. (1 = On)
-ptx_line_stats_filename gpgpu_inst_stats.txt # Output file for PTX source line statistics.
-save_embedded_ptx                      0 # saves ptx files embedded in binary as <n>.ptx
-keep                                   0 # keep intermediate files created by GPGPU-Sim when interfacing with external programs
-gpgpu_ptx_save_converted_ptxplus                    0 # Saved converted ptxplus to a file
-ptx_opcode_latency_int         4,13,4,5,145 # Opcode latencies for integers <ADD,MAX,MUL,MAD,DIV>Default 1,1,19,25,145
-ptx_opcode_latency_fp          4,13,4,5,39 # Opcode latencies for single precision floating points <ADD,MAX,MUL,MAD,DIV>Default 1,1,1,1,30
-ptx_opcode_latency_dp         8,19,8,8,330 # Opcode latencies for double precision floating points <ADD,MAX,MUL,MAD,DIV>Default 8,8,8,8,335
-ptx_opcode_initiation_int            1,2,2,1,8 # Opcode initiation intervals for integers <ADD,MAX,MUL,MAD,DIV>Default 1,1,4,4,32
-ptx_opcode_initiation_fp            1,2,1,1,4 # Opcode initiation intervals for single precision floating points <ADD,MAX,MUL,MAD,DIV>Default 1,1,1,1,5
-ptx_opcode_initiation_dp         8,16,8,8,130 # Opcode initiation intervals for double precision floating points <ADD,MAX,MUL,MAD,DIV>Default 8,8,8,8,130
DRAM Timing Options:
nbk                                    16 # number of banks
CCD                                     2 # column to column delay
RRD                                     6 # minimal delay between activation of rows in different banks
RCD                                    12 # row to column delay
RAS                                    28 # time needed to activate row
RP                                     12 # time needed to precharge (deactivate) row
RC                                     40 # row cycle time
CDLR                                    5 # switching from write to read (changes tWTR)
WR                                     12 # last data-in to row precharge
CL                                     12 # CAS latency
WL                                      4 # Write latency
nbkgrp                                  4 # number of bank groups
CCDL                                    3 # column to column delay between accesses to different bank groups
RTPL                                    2 # read to precharge delay between accesses to different bank groups
Total number of memory sub partition = 12
addr_dec_mask[CHIP]  = 0000000000000000 	high:64 low:0
addr_dec_mask[BK]    = 000000000000e100 	high:16 low:8
addr_dec_mask[ROW]   = 000000000fff0000 	high:28 low:16
addr_dec_mask[COL]   = 0000000000001eff 	high:13 low:0
addr_dec_mask[BURST] = 000000000000003f 	high:6 low:0
sub_partition_id_mask = 0000000000000100
GPGPU-Sim uArch: clock freqs: 700000000.000000:700000000.000000:700000000.000000:924000000.000000
GPGPU-Sim uArch: clock periods: 0.00000000142857142857:0.00000000142857142857:0.00000000142857142857:0.00000000108225108225
*** Initializing Memory Statistics ***
GPGPU-Sim uArch: interconnect node map (shaderID+MemID to icntID)
GPGPU-Sim uArch: Memory nodes ID start from index: 15
GPGPU-Sim uArch:    0   1   2   3   4
GPGPU-Sim uArch:    5   6   7   8   9
GPGPU-Sim uArch:   10  11  12  13  14
GPGPU-Sim uArch:   15  16  17  18  19
GPGPU-Sim uArch:   20  21  22  23  24
GPGPU-Sim uArch:   25  26
GPGPU-Sim uArch: interconnect node reverse map (icntID to shaderID+MemID)
GPGPU-Sim uArch: Memory nodes start from ID: 15
GPGPU-Sim uArch:    0   1   2   3   4
GPGPU-Sim uArch:    5   6   7   8   9
GPGPU-Sim uArch:   10  11  12  13  14
GPGPU-Sim uArch:   15  16  17  18  19
GPGPU-Sim uArch:   20  21  22  23  24
GPGPU-Sim uArch:   25  26
2a552cef618c3eed1202856b15bdbc61  /home/scratch/adwait/applications/benchmarks/CUDA/RAY/gpgpu_ptx_sim__RAY
GPGPU-Sim uArch: performance model initialization complete.
GPGPU-Sim PTX: __cudaRegisterFatBinary, fat_cubin_handle = 1, filename=rayTracing.cu
self exe links to: /home/scratch/adwait/applications/benchmarks/CUDA/RAY/gpgpu_ptx_sim__RAY
Running md5sum using "md5sum /home/scratch/adwait/applications/benchmarks/CUDA/RAY/gpgpu_ptx_sim__RAY "
Running cuobjdump using "$CUDA_INSTALL_PATH/bin/cuobjdump -ptx -elf -sass /home/scratch/adwait/applications/benchmarks/CUDA/RAY/gpgpu_ptx_sim__RAY > _cuobjdump_complete_output_8MCLzm"
Parsing file _cuobjdump_complete_output_8MCLzm
######### cuobjdump parser ########
## Adding new section ELF
Adding arch: sm_20
Adding identifier: rayTracing.cu
## Adding new section PTX
Adding ptx filename: _cuobjdump_1.ptx
Adding arch: sm_20
Adding identifier: rayTracing.cu
Done parsing!!!
GPGPU-Sim PTX: __cudaRegisterFunction _Z6renderPjP4Nodejjff : hostFun 0x0x40d033, fat_cubin_handle = 1
GPGPU-Sim PTX: allocating stack frame region for .param "__cudaretf__Zmi6float3S_" from 0x0 to 0xc
GPGPU-Sim PTX: allocating stack frame region for .param "__cudaparmf1__Zmi6float3S_" from 0xc to 0x18
GPGPU-Sim PTX: allocating stack frame region for .param "__cudaparmf2__Zmi6float3S_" from 0x18 to 0x24
GPGPU-Sim PTX: allocating stack frame region for .param "__cudaretf__Z9normalize6float3" from 0x0 to 0xc
GPGPU-Sim PTX: allocating stack frame region for .param "__cudaparmf1__Z9normalize6float3" from 0xc to 0x18
GPGPU-Sim PTX: allocating stack frame region for .param "__cudaretf__Z18intersectionSphere5Rayon6float3f" from 0x0 to 0x4
GPGPU-Sim PTX: allocating stack frame region for .param "__cudaparmf1__Z18intersectionSphere5Rayon6float3f" from 0x4 to 0x1c
GPGPU-Sim PTX: allocating stack frame region for .param "__cudaparmf2__Z18intersectionSphere5Rayon6float3f" from 0x1c to 0x28
GPGPU-Sim PTX: allocating stack frame region for .param "__cudaparmf3__Z18intersectionSphere5Rayon6float3f" from 0x28 to 0x2c
GPGPU-Sim PTX: allocating stack frame region for .param "__cudaretf__Z16intersectionPlan5Rayon6float3S0_" from 0x0 to 0x4
GPGPU-Sim PTX: allocating stack frame region for .param "__cudaparmf1__Z16intersectionPlan5Rayon6float3S0_" from 0x4 to 0x1c
GPGPU-Sim PTX: allocating stack frame region for .param "__cudaparmf2__Z16intersectionPlan5Rayon6float3S0_" from 0x1c to 0x28
GPGPU-Sim PTX: allocating stack frame region for .param "__cudaparmf3__Z16intersectionPlan5Rayon6float3S0_" from 0x28 to 0x34
GPGPU-Sim PTX: allocating stack frame region for .param "__cudaretf__Z10getNormale6float3S_" from 0x0 to 0xc
GPGPU-Sim PTX: allocating stack frame region for .param "__cudaparmf1__Z10getNormale6float3S_" from 0xc to 0x18
GPGPU-Sim PTX: allocating stack frame region for .param "__cudaparmf2__Z10getNormale6float3S_" from 0x18 to 0x24
GPGPU-Sim PTX: allocating stack frame region for .param "__cudaretf__Z11getNormaleP6float3" from 0x0 to 0xc
GPGPU-Sim PTX: allocating stack frame region for .param "__cudaparmf1__Z11getNormaleP6float3" from 0xc to 0x18
GPGPU-Sim PTX: allocating stack frame region for .param "__cudaretf__Z14rgbaFloatToInt6float4" from 0x0 to 0x4
GPGPU-Sim PTX: allocating stack frame region for .param "__cudaparmf1__Z14rgbaFloatToInt6float4" from 0x4 to 0x14
GPGPU-Sim PTX: allocating stack frame region for .param "__cudaretf__Z12notShadowRayP4Node6float3S1_f" from 0x0 to 0x4
GPGPU-Sim PTX: allocating stack frame region for .param "__cudaparmf1__Z12notShadowRayP4Node6float3S1_f" from 0x4 to 0xc
GPGPU-Sim PTX: allocating stack frame region for .param "__cudaparmf2__Z12notShadowRayP4Node6float3S1_f" from 0xc to 0x18
GPGPU-Sim PTX: allocating stack frame region for .param "__cudaparmf3__Z12notShadowRayP4Node6float3S1_f" from 0x18 to 0x24
GPGPU-Sim PTX: allocating stack frame region for .param "__cudaparmf4__Z12notShadowRayP4Node6float3S1_f" from 0x24 to 0x28
GPGPU-Sim PTX: allocating stack frame region for .param "__cudaretf__Z15float2int_pow20f" from 0x0 to 0x4
GPGPU-Sim PTX: allocating stack frame region for .param "__cudaparmf1__Z15float2int_pow20f" from 0x4 to 0x8
GPGPU-Sim PTX: allocating stack frame region for .param "__cudaretf__Z15float2int_pow50f" from 0x0 to 0x4
GPGPU-Sim PTX: allocating stack frame region for .param "__cudaparmf1__Z15float2int_pow50f" from 0x4 to 0x8
GPGPU-Sim PTX: allocating stack frame region for .param "__cudaparmf1__ZN4dim3C1Ejjj" from 0x0 to 0x8
GPGPU-Sim PTX: allocating stack frame region for .param "__cudaparmf2__ZN4dim3C1Ejjj" from 0x8 to 0xc
GPGPU-Sim PTX: allocating stack frame region for .param "__cudaparmf3__ZN4dim3C1Ejjj" from 0xc to 0x10
GPGPU-Sim PTX: allocating stack frame region for .param "__cudaparmf4__ZN4dim3C1Ejjj" from 0x10 to 0x14
GPGPU-Sim PTX: instruction assembly for function '_Zmi6float3S_'...   done.
GPGPU-Sim PTX: finding reconvergence points for '_Zmi6float3S_'...
GPGPU-Sim PTX: Finding dominators for '_Zmi6float3S_'...
GPGPU-Sim PTX: Finding immediate dominators for '_Zmi6float3S_'...
GPGPU-Sim PTX: Finding postdominators for '_Zmi6float3S_'...
GPGPU-Sim PTX: Finding immediate postdominators for '_Zmi6float3S_'...
GPGPU-Sim PTX: pre-decoding instructions for '_Zmi6float3S_'...
GPGPU-Sim PTX: reconvergence points for _Zmi6float3S_...
GPGPU-Sim PTX: ... end of reconvergence points for _Zmi6float3S_
GPGPU-Sim PTX: ... done pre-decoding instructions for '_Zmi6float3S_'.
GPGPU-Sim PTX: instruction assembly for function '_Z9normalize6float3'...   done.
GPGPU-Sim PTX: finding reconvergence points for '_Z9normalize6float3'...
GPGPU-Sim PTX: Finding dominators for '_Z9normalize6float3'...
GPGPU-Sim PTX: Finding immediate dominators for '_Z9normalize6float3'...
GPGPU-Sim PTX: Finding postdominators for '_Z9normalize6float3'...
GPGPU-Sim PTX: Finding immediate postdominators for '_Z9normalize6float3'...
GPGPU-Sim PTX: pre-decoding instructions for '_Z9normalize6float3'...
GPGPU-Sim PTX: reconvergence points for _Z9normalize6float3...
GPGPU-Sim PTX: ... end of reconvergence points for _Z9normalize6float3
GPGPU-Sim PTX: ... done pre-decoding instructions for '_Z9normalize6float3'.
GPGPU-Sim PTX: instruction assembly for function '_Z18intersectionSphere5Rayon6float3f'...   done.
GPGPU-Sim PTX: finding reconvergence points for '_Z18intersectionSphere5Rayon6float3f'...
GPGPU-Sim PTX: Finding dominators for '_Z18intersectionSphere5Rayon6float3f'...
GPGPU-Sim PTX: Finding immediate dominators for '_Z18intersectionSphere5Rayon6float3f'...
GPGPU-Sim PTX: Finding postdominators for '_Z18intersectionSphere5Rayon6float3f'...
GPGPU-Sim PTX: Finding immediate postdominators for '_Z18intersectionSphere5Rayon6float3f'...
GPGPU-Sim PTX: pre-decoding instructions for '_Z18intersectionSphere5Rayon6float3f'...
GPGPU-Sim PTX: reconvergence points for _Z18intersectionSphere5Rayon6float3f...
GPGPU-Sim PTX:  1 (potential) branch divergence @  PC=0x250 (_1.ptx:173) @%p2 bra $Lt_2_3074;
GPGPU-Sim PTX:    immediate post dominator      @  PC=0x2c0 (_1.ptx:193) mov.f32 %f39, %f32;
GPGPU-Sim PTX:  2 (potential) branch divergence @  PC=0x260 (_1.ptx:175) bra.uni $Lt_2_2818;
GPGPU-Sim PTX:    immediate post dominator      @  PC=0x2c0 (_1.ptx:193) mov.f32 %f39, %f32;
GPGPU-Sim PTX:  3 (potential) branch divergence @  PC=0x280 (_1.ptx:180) @!%p3 bra $Lt_2_3586;
GPGPU-Sim PTX:    immediate post dominator      @  PC=0x2c0 (_1.ptx:193) mov.f32 %f39, %f32;
GPGPU-Sim PTX:  4 (potential) branch divergence @  PC=0x290 (_1.ptx:182) bra.uni $Lt_2_3330;
GPGPU-Sim PTX:    immediate post dominator      @  PC=0x2c0 (_1.ptx:193) mov.f32 %f39, %f32;
GPGPU-Sim PTX: ... end of reconvergence points for _Z18intersectionSphere5Rayon6float3f
GPGPU-Sim PTX: ... done pre-decoding instructions for '_Z18intersectionSphere5Rayon6float3f'.
GPGPU-Sim PTX: instruction assembly for function '_Z16intersectionPlan5Rayon6float3S0_'...   done.
GPGPU-Sim PTX: finding reconvergence points for '_Z16intersectionPlan5Rayon6float3S0_'...
GPGPU-Sim PTX: Finding dominators for '_Z16intersectionPlan5Rayon6float3S0_'...
GPGPU-Sim PTX: Finding immediate dominators for '_Z16intersectionPlan5Rayon6float3S0_'...
GPGPU-Sim PTX: Finding postdominators for '_Z16intersectionPlan5Rayon6float3S0_'...
GPGPU-Sim PTX: Finding immediate postdominators for '_Z16intersectionPlan5Rayon6float3S0_'...
GPGPU-Sim PTX: pre-decoding instructions for '_Z16intersectionPlan5Rayon6float3S0_'...
GPGPU-Sim PTX: reconvergence points for _Z16intersectionPlan5Rayon6float3S0_...
GPGPU-Sim PTX:  1 (potential) branch divergence @  PC=0x320 (_1.ptx:214) @!%p1 bra $Lt_3_2050;
GPGPU-Sim PTX:    immediate post dominator      @  PC=0x368 (_1.ptx:227) mov.f32 %f14, %f9;
GPGPU-Sim PTX:  2 (potential) branch divergence @  PC=0x330 (_1.ptx:216) bra.uni $Lt_3_1794;
GPGPU-Sim PTX:    immediate post dominator      @  PC=0x368 (_1.ptx:227) mov.f32 %f14, %f9;
GPGPU-Sim PTX: ... end of reconvergence points for _Z16intersectionPlan5Rayon6float3S0_
GPGPU-Sim PTX: ... done pre-decoding instructions for '_Z16intersectionPlan5Rayon6float3S0_'.
GPGPU-Sim PTX: instruction assembly for function '_Z10getNormale6float3S_'...   done.
GPGPU-Sim PTX: finding reconvergence points for '_Z10getNormale6float3S_'...
GPGPU-Sim PTX: Finding dominators for '_Z10getNormale6float3S_'...
GPGPU-Sim PTX: Finding immediate dominators for '_Z10getNormale6float3S_'...
GPGPU-Sim PTX: Finding postdominators for '_Z10getNormale6float3S_'...
GPGPU-Sim PTX: Finding immediate postdominators for '_Z10getNormale6float3S_'...
GPGPU-Sim PTX: pre-decoding instructions for '_Z10getNormale6float3S_'...
GPGPU-Sim PTX: reconvergence points for _Z10getNormale6float3S_...
GPGPU-Sim PTX: ... end of reconvergence points for _Z10getNormale6float3S_
GPGPU-Sim PTX: ... done pre-decoding instructions for '_Z10getNormale6float3S_'.
GPGPU-Sim PTX: instruction assembly for function '_Z11getNormaleP6float3'...   done.
GPGPU-Sim PTX: finding reconvergence points for '_Z11getNormaleP6float3'...
GPGPU-Sim PTX: Finding dominators for '_Z11getNormaleP6float3'...
GPGPU-Sim PTX: Finding immediate dominators for '_Z11getNormaleP6float3'...
GPGPU-Sim PTX: Finding postdominators for '_Z11getNormaleP6float3'...
GPGPU-Sim PTX: Finding immediate postdominators for '_Z11getNormaleP6float3'...
GPGPU-Sim PTX: pre-decoding instructions for '_Z11getNormaleP6float3'...
GPGPU-Sim PTX: reconvergence points for _Z11getNormaleP6float3...
GPGPU-Sim PTX: ... end of reconvergence points for _Z11getNormaleP6float3
GPGPU-Sim PTX: ... done pre-decoding instructions for '_Z11getNormaleP6float3'.
GPGPU-Sim PTX: instruction assembly for function '_Z14rgbaFloatToInt6float4'...   done.
GPGPU-Sim PTX: finding reconvergence points for '_Z14rgbaFloatToInt6float4'...
GPGPU-Sim PTX: Finding dominators for '_Z14rgbaFloatToInt6float4'...
GPGPU-Sim PTX: Finding immediate dominators for '_Z14rgbaFloatToInt6float4'...
GPGPU-Sim PTX: Finding postdominators for '_Z14rgbaFloatToInt6float4'...
GPGPU-Sim PTX: Finding immediate postdominators for '_Z14rgbaFloatToInt6float4'...
GPGPU-Sim PTX: pre-decoding instructions for '_Z14rgbaFloatToInt6float4'...
GPGPU-Sim PTX: reconvergence points for _Z14rgbaFloatToInt6float4...
GPGPU-Sim PTX: ... end of reconvergence points for _Z14rgbaFloatToInt6float4
GPGPU-Sim PTX: ... done pre-decoding instructions for '_Z14rgbaFloatToInt6float4'.
GPGPU-Sim PTX: allocating global region for "cnode" from 0x100 to 0x1a0 (global memory space)
GPGPU-Sim PTX: instruction assembly for function '_Z12notShadowRayP4Node6float3S1_f'...   done.
GPGPU-Sim PTX: finding reconvergence points for '_Z12notShadowRayP4Node6float3S1_f'...
GPGPU-Sim PTX: Finding dominators for '_Z12notShadowRayP4Node6float3S1_f'...
GPGPU-Sim PTX: Finding immediate dominators for '_Z12notShadowRayP4Node6float3S1_f'...
GPGPU-Sim PTX: Finding postdominators for '_Z12notShadowRayP4Node6float3S1_f'...
GPGPU-Sim PTX: Finding immediate postdominators for '_Z12notShadowRayP4Node6float3S1_f'...
GPGPU-Sim PTX: pre-decoding instructions for '_Z12notShadowRayP4Node6float3S1_f'...
GPGPU-Sim PTX: reconvergence points for _Z12notShadowRayP4Node6float3S1_f...
GPGPU-Sim PTX:  1 (potential) branch divergence @  PC=0x638 (_1.ptx:364) @%p1 bra $Lt_7_8450;
GPGPU-Sim PTX:    immediate post dominator      @  PC=0x828 (_1.ptx:441) mov.f32 %f58, 0f00000000;    // 0
GPGPU-Sim PTX:  2 (potential) branch divergence @  PC=0x658 (_1.ptx:369) @!%p2 bra $Lt_7_8962;
GPGPU-Sim PTX:    immediate post dominator      @  PC=0x6b8 (_1.ptx:385) mov.f32 %f28, %f20;
GPGPU-Sim PTX:  3 (potential) branch divergence @  PC=0x668 (_1.ptx:371) bra.uni $Lt_7_8706;
GPGPU-Sim PTX:    immediate post dominator      @  PC=0x6b8 (_1.ptx:385) mov.f32 %f28, %f20;
GPGPU-Sim PTX:  4 (potential) branch divergence @  PC=0x6c0 (_1.ptx:386) bra.uni $Lt_7_8194;
GPGPU-Sim PTX:    immediate post dominator      @  PC=0x828 (_1.ptx:441) mov.f32 %f58, 0f00000000;    // 0
GPGPU-Sim PTX:  5 (potential) branch divergence @  PC=0x7b0 (_1.ptx:418) @%p5 bra $Lt_7_9474;
GPGPU-Sim PTX:    immediate post dominator      @  PC=0x820 (_1.ptx:438) mov.f32 %f28, %f51;
GPGPU-Sim PTX:  6 (potential) branch divergence @  PC=0x7c0 (_1.ptx:420) bra.uni $Lt_7_9730;
GPGPU-Sim PTX:    immediate post dominator      @  PC=0x820 (_1.ptx:438) mov.f32 %f28, %f51;
GPGPU-Sim PTX:  7 (potential) branch divergence @  PC=0x7e0 (_1.ptx:425) @!%p6 bra $Lt_7_9986;
GPGPU-Sim PTX:    immediate post dominator      @  PC=0x820 (_1.ptx:438) mov.f32 %f28, %f51;
GPGPU-Sim PTX:  8 (potential) branch divergence @  PC=0x7f0 (_1.ptx:427) bra.uni $Lt_7_9730;
GPGPU-Sim PTX:    immediate post dominator      @  PC=0x820 (_1.ptx:438) mov.f32 %f28, %f51;
GPGPU-Sim PTX:  9 (potential) branch divergence @  PC=0x838 (_1.ptx:443) @!%p7 bra $Lt_7_10242;
GPGPU-Sim PTX:    immediate post dominator      @  PC=0x8e8 (_1.ptx:468) add.s32 %r1, %r1, 1;
GPGPU-Sim PTX: 10 (potential) branch divergence @  PC=0x8d8 (_1.ptx:463) @!%p8 bra $Lt_7_10242;
GPGPU-Sim PTX:    immediate post dominator      @  PC=0x8e8 (_1.ptx:468) add.s32 %r1, %r1, 1;
GPGPU-Sim PTX: 11 (potential) branch divergence @  PC=0x908 (_1.ptx:472) @%p9 bra $Lt_7_10754;
GPGPU-Sim PTX:    immediate post dominator      @  PC=0x960 (_1.ptx:486) selp.s32 %r10, 1, 0, %p11;
GPGPU-Sim PTX: 12 (potential) branch divergence @  PC=0x930 (_1.ptx:477) @%p10 bra $L_7_7170;
GPGPU-Sim PTX:    immediate post dominator      @  PC=0x960 (_1.ptx:486) selp.s32 %r10, 1, 0, %p11;
GPGPU-Sim PTX: 13 (potential) branch divergence @  PC=0x938 (_1.ptx:478) bra.uni $L_7_7938;
GPGPU-Sim PTX:    immediate post dominator      @  PC=0x960 (_1.ptx:486) selp.s32 %r10, 1, 0, %p11;
GPGPU-Sim PTX: ... end of reconvergence points for _Z12notShadowRayP4Node6float3S1_f
GPGPU-Sim PTX: ... done pre-decoding instructions for '_Z12notShadowRayP4Node6float3S1_f'.
GPGPU-Sim PTX: instruction assembly for function '_Z15float2int_pow20f'...   done.
GPGPU-Sim PTX: finding reconvergence points for '_Z15float2int_pow20f'...
GPGPU-Sim PTX: Finding dominators for '_Z15float2int_pow20f'...
GPGPU-Sim PTX: Finding immediate dominators for '_Z15float2int_pow20f'...
GPGPU-Sim PTX: Finding postdominators for '_Z15float2int_pow20f'...
GPGPU-Sim PTX: Finding immediate postdominators for '_Z15float2int_pow20f'...
GPGPU-Sim PTX: pre-decoding instructions for '_Z15float2int_pow20f'...
GPGPU-Sim PTX: reconvergence points for _Z15float2int_pow20f...
GPGPU-Sim PTX: ... end of reconvergence points for _Z15float2int_pow20f
GPGPU-Sim PTX: ... done pre-decoding instructions for '_Z15float2int_pow20f'.
GPGPU-Sim PTX: instruction assembly for function '_Z15float2int_pow50f'...   done.
GPGPU-Sim PTX: finding reconvergence points for '_Z15float2int_pow50f'...
GPGPU-Sim PTX: Finding dominators for '_Z15float2int_pow50f'...
GPGPU-Sim PTX: Finding immediate dominators for '_Z15float2int_pow50f'...
GPGPU-Sim PTX: Finding postdominators for '_Z15float2int_pow50f'...
GPGPU-Sim PTX: Finding immediate postdominators for '_Z15float2int_pow50f'...
GPGPU-Sim PTX: pre-decoding instructions for '_Z15float2int_pow50f'...
GPGPU-Sim PTX: reconvergence points for _Z15float2int_pow50f...
GPGPU-Sim PTX: ... end of reconvergence points for _Z15float2int_pow50f
GPGPU-Sim PTX: ... done pre-decoding instructions for '_Z15float2int_pow50f'.
GPGPU-Sim PTX: allocating constant region for "MView" from 0x200 to 0x230 (global memory space) 1
GPGPU-Sim PTX: allocating stack frame region for .local "__cuda___cuda_local_var_36206_9_non_const_pile_32240" from 0x0 to 0x50
GPGPU-Sim PTX: instruction assembly for function '_Z6renderPjP4Nodejjff'...   done.
GPGPU-Sim PTX: finding reconvergence points for '_Z6renderPjP4Nodejjff'...
GPGPU-Sim PTX: Finding dominators for '_Z6renderPjP4Nodejjff'...
GPGPU-Sim PTX: Finding immediate dominators for '_Z6renderPjP4Nodejjff'...
GPGPU-Sim PTX: Finding postdominators for '_Z6renderPjP4Nodejjff'...
GPGPU-Sim PTX: Finding immediate postdominators for '_Z6renderPjP4Nodejjff'...
GPGPU-Sim PTX: pre-decoding instructions for '_Z6renderPjP4Nodejjff'...
GPGPU-Sim PTX: reconvergence points for _Z6renderPjP4Nodejjff...
GPGPU-Sim PTX:  1 (potential) branch divergence @  PC=0xdb0 (_1.ptx:663) @%p1 bra $Lt_10_44034;
GPGPU-Sim PTX:    immediate post dominator      @  PC=0x2370 (_1.ptx:1495) exit;
GPGPU-Sim PTX:  2 (potential) branch divergence @  PC=0x1028 (_1.ptx:751) @%p2 bra $Lt_10_45570;
GPGPU-Sim PTX:    immediate post dominator      @  PC=0x11b8 (_1.ptx:815) mov.f32 %f108, 0f00000000;   // 0
GPGPU-Sim PTX:  3 (potential) branch divergence @  PC=0x1048 (_1.ptx:756) @!%p3 bra $Lt_10_46082;
GPGPU-Sim PTX:    immediate post dominator      @  PC=0x1090 (_1.ptx:769) mov.f32 %f87, %f82;
GPGPU-Sim PTX:  4 (potential) branch divergence @  PC=0x1058 (_1.ptx:758) bra.uni $Lt_10_45826;
GPGPU-Sim PTX:    immediate post dominator      @  PC=0x1090 (_1.ptx:769) mov.f32 %f87, %f82;
GPGPU-Sim PTX:  5 (potential) branch divergence @  PC=0x1098 (_1.ptx:770) bra.uni $Lt_10_45314;
GPGPU-Sim PTX:    immediate post dominator      @  PC=0x11b8 (_1.ptx:815) mov.f32 %f108, 0f00000000;   // 0
GPGPU-Sim PTX:  6 (potential) branch divergence @  PC=0x1140 (_1.ptx:793) @%p6 bra $Lt_10_46594;
GPGPU-Sim PTX:    immediate post dominator      @  PC=0x11b0 (_1.ptx:813) mov.f32 %f87, %f101;
GPGPU-Sim PTX:  7 (potential) branch divergence @  PC=0x1150 (_1.ptx:795) bra.uni $Lt_10_46850;
GPGPU-Sim PTX:    immediate post dominator      @  PC=0x11b0 (_1.ptx:813) mov.f32 %f87, %f101;
GPGPU-Sim PTX:  8 (potential) branch divergence @  PC=0x1170 (_1.ptx:800) @!%p7 bra $Lt_10_47106;
GPGPU-Sim PTX:    immediate post dominator      @  PC=0x11b0 (_1.ptx:813) mov.f32 %f87, %f101;
GPGPU-Sim PTX:  9 (potential) branch divergence @  PC=0x1180 (_1.ptx:802) bra.uni $Lt_10_46850;
GPGPU-Sim PTX:    immediate post dominator      @  PC=0x11b0 (_1.ptx:813) mov.f32 %f87, %f101;
GPGPU-Sim PTX: 10 (potential) branch divergence @  PC=0x11f8 (_1.ptx:823) @%p8 bra $Lt_10_47362;
GPGPU-Sim PTX:    immediate post dominator      @  PC=0x1210 (_1.ptx:829) add.s32 %r25, %r25, 1;
GPGPU-Sim PTX: 11 (potential) branch divergence @  PC=0x1230 (_1.ptx:833) @%p9 bra $Lt_10_45058;
GPGPU-Sim PTX:    immediate post dominator      @  PC=0x1238 (_1.ptx:834) mov.f32 %f109, 0f00000000;   // 0
GPGPU-Sim PTX: 12 (potential) branch divergence @  PC=0x1280 (_1.ptx:843) @%p10 bra $Lt_10_48130;
GPGPU-Sim PTX:    immediate post dominator      @  PC=0x2140 (_1.ptx:1416) add.s32 %r23, %r23, 1;
GPGPU-Sim PTX: 13 (potential) branch divergence @  PC=0x1330 (_1.ptx:868) @%p11 bra $Lt_10_48898;
GPGPU-Sim PTX:    immediate post dominator      @  PC=0x13b8 (_1.ptx:888) sub.f32 %f136, %f21, %f119;
GPGPU-Sim PTX: 14 (potential) branch divergence @  PC=0x1350 (_1.ptx:873) bra.uni $Lt_10_48642;
GPGPU-Sim PTX:    immediate post dominator      @  PC=0x13b8 (_1.ptx:888) sub.f32 %f136, %f21, %f119;
GPGPU-Sim PTX: 15 (potential) branch divergence @  PC=0x1430 (_1.ptx:903) @!%p12 bra $Lt_10_49410;
GPGPU-Sim PTX:    immediate post dominator      @  PC=0x1470 (_1.ptx:915) mov.f32 %f153, 0f3d4ccccd;   // 0.05
GPGPU-Sim PTX: 16 (potential) branch divergence @  PC=0x1450 (_1.ptx:908) bra.uni $Lt_10_49154;
GPGPU-Sim PTX:    immediate post dominator      @  PC=0x1470 (_1.ptx:915) mov.f32 %f153, 0f3d4ccccd;   // 0.05
GPGPU-Sim PTX: 17 (potential) branch divergence @  PC=0x1578 (_1.ptx:949) @!%p13 bra $Lt_10_58114;
GPGPU-Sim PTX:    immediate post dominator      @  PC=0x2080 (_1.ptx:1388) add.f32 %f399, %f126, %f126;
GPGPU-Sim PTX: 18 (potential) branch divergence @  PC=0x15c0 (_1.ptx:961) @%p14 bra $Lt_10_49922;
GPGPU-Sim PTX:    immediate post dominator      @  PC=0x17b0 (_1.ptx:1039) mov.f32 %f221, 0f00000000;   // 0
GPGPU-Sim PTX: 19 (potential) branch divergence @  PC=0x15e0 (_1.ptx:966) @!%p15 bra $Lt_10_50434;
GPGPU-Sim PTX:    immediate post dominator      @  PC=0x1638 (_1.ptx:982) mov.f32 %f190, %f183;
GPGPU-Sim PTX: 20 (potential) branch divergence @  PC=0x15f0 (_1.ptx:968) bra.uni $Lt_10_50178;
GPGPU-Sim PTX:    immediate post dominator      @  PC=0x1638 (_1.ptx:982) mov.f32 %f190, %f183;
GPGPU-Sim PTX: 21 (potential) branch divergence @  PC=0x1640 (_1.ptx:983) bra.uni $Lt_10_49666;
GPGPU-Sim PTX:    immediate post dominator      @  PC=0x17b0 (_1.ptx:1039) mov.f32 %f221, 0f00000000;   // 0
GPGPU-Sim PTX: 22 (potential) branch divergence @  PC=0x1738 (_1.ptx:1016) @%p18 bra $Lt_10_50946;
GPGPU-Sim PTX:    immediate post dominator      @  PC=0x17a8 (_1.ptx:1036) mov.f32 %f190, %f214;
GPGPU-Sim PTX: 23 (potential) branch divergence @  PC=0x1748 (_1.ptx:1018) bra.uni $Lt_10_51202;
GPGPU-Sim PTX:    immediate post dominator      @  PC=0x17a8 (_1.ptx:1036) mov.f32 %f190, %f214;
GPGPU-Sim PTX: 24 (potential) branch divergence @  PC=0x1768 (_1.ptx:1023) @!%p19 bra $Lt_10_51458;
GPGPU-Sim PTX:    immediate post dominator      @  PC=0x17a8 (_1.ptx:1036) mov.f32 %f190, %f214;
GPGPU-Sim PTX: 25 (potential) branch divergence @  PC=0x1778 (_1.ptx:1025) bra.uni $Lt_10_51202;
GPGPU-Sim PTX:    immediate post dominator      @  PC=0x17a8 (_1.ptx:1036) mov.f32 %f190, %f214;
GPGPU-Sim PTX: 26 (potential) branch divergence @  PC=0x17c0 (_1.ptx:1041) @!%p20 bra $Lt_10_58370;
GPGPU-Sim PTX:    immediate post dominator      @  PC=0x1828 (_1.ptx:1057) add.s32 %r50, %r50, 1;
GPGPU-Sim PTX: 27 (potential) branch divergence @  PC=0x1818 (_1.ptx:1052) @!%p21 bra $Lt_10_58370;
GPGPU-Sim PTX:    immediate post dominator      @  PC=0x1828 (_1.ptx:1057) add.s32 %r50, %r50, 1;
GPGPU-Sim PTX: 28 (potential) branch divergence @  PC=0x1848 (_1.ptx:1061) @%p22 bra $Lt_10_58882;
GPGPU-Sim PTX:    immediate post dominator      @  PC=0x1880 (_1.ptx:1071) @!%p23 bra $Lt_10_58114;
GPGPU-Sim PTX: 29 (potential) branch divergence @  PC=0x1860 (_1.ptx:1064) @%p23 bra $L_10_42498;
GPGPU-Sim PTX:    immediate post dominator      @  PC=0x1880 (_1.ptx:1071) @!%p23 bra $Lt_10_58114;
GPGPU-Sim PTX: 30 (potential) branch divergence @  PC=0x1868 (_1.ptx:1065) bra.uni $L_10_43266;
GPGPU-Sim PTX:    immediate post dominator      @  PC=0x1880 (_1.ptx:1071) @!%p23 bra $Lt_10_58114;
GPGPU-Sim PTX: 31 (potential) branch divergence @  PC=0x1880 (_1.ptx:1071) @!%p23 bra $Lt_10_58114;
GPGPU-Sim PTX:    immediate post dominator      @  PC=0x2080 (_1.ptx:1388) add.f32 %f399, %f126, %f126;
GPGPU-Sim PTX: 32 (potential) branch divergence @  PC=0x19c8 (_1.ptx:1115) @!%p24 bra $Lt_10_51714;
GPGPU-Sim PTX:    immediate post dominator      @  PC=0x2040 (_1.ptx:1375) mov.f32 %f394, 0f3f4ccccd;   // 0.8
GPGPU-Sim PTX: 33 (potential) branch divergence @  PC=0x19d8 (_1.ptx:1118) bra.uni $LDWendi___isnanf_192_1;
GPGPU-Sim PTX:    immediate post dominator      @  PC=0x2040 (_1.ptx:1375) mov.f32 %f394, 0f3f4ccccd;   // 0.8
GPGPU-Sim PTX: 34 (potential) branch divergence @  PC=0x19f8 (_1.ptx:1124) @!%p25 bra $Lt_10_7682;
GPGPU-Sim PTX:    immediate post dominator      @  PC=0x2040 (_1.ptx:1375) mov.f32 %f394, 0f3f4ccccd;   // 0.8
GPGPU-Sim PTX: 35 (potential) branch divergence @  PC=0x1a00 (_1.ptx:1125) bra.uni $Lt_10_7938;
GPGPU-Sim PTX:    immediate post dominator      @  PC=0x1a20 (_1.ptx:1133) mov.f32 %f272, 0f7f800000;   // ((1.0F)/(0.0F))
GPGPU-Sim PTX: 36 (potential) branch divergence @  PC=0x1a18 (_1.ptx:1130) bra.uni $LDWendi___isnanf_192_1;
GPGPU-Sim PTX:    immediate post dominator      @  PC=0x2040 (_1.ptx:1375) mov.f32 %f394, 0f3f4ccccd;   // 0.8
GPGPU-Sim PTX: 37 (potential) branch divergence @  PC=0x1a30 (_1.ptx:1135) @!%p26 bra $Lt_10_52226;
GPGPU-Sim PTX:    immediate post dominator      @  PC=0x2040 (_1.ptx:1375) mov.f32 %f394, 0f3f4ccccd;   // 0.8
GPGPU-Sim PTX: 38 (potential) branch divergence @  PC=0x1a40 (_1.ptx:1138) bra.uni $LDWendi___isnanf_192_1;
GPGPU-Sim PTX:    immediate post dominator      @  PC=0x2040 (_1.ptx:1375) mov.f32 %f394, 0f3f4ccccd;   // 0.8
GPGPU-Sim PTX: 39 (potential) branch divergence @  PC=0x1a58 (_1.ptx:1142) @!%p27 bra $Lt_10_52738;
GPGPU-Sim PTX:    immediate post dominator      @  PC=0x2040 (_1.ptx:1375) mov.f32 %f394, 0f3f4ccccd;   // 0.8
GPGPU-Sim PTX: 40 (potential) branch divergence @  PC=0x1ab8 (_1.ptx:1155) bra.uni $LDWendi___isnanf_192_1;
GPGPU-Sim PTX:    immediate post dominator      @  PC=0x2040 (_1.ptx:1375) mov.f32 %f394, 0f3f4ccccd;   // 0.8
GPGPU-Sim PTX: 41 (potential) branch divergence @  PC=0x1ad0 (_1.ptx:1159) @!%p29 bra $Lt_10_53250;
GPGPU-Sim PTX:    immediate post dominator      @  PC=0x2040 (_1.ptx:1375) mov.f32 %f394, 0f3f4ccccd;   // 0.8
GPGPU-Sim PTX: 42 (potential) branch divergence @  PC=0x1b20 (_1.ptx:1170) @!%p30 bra $Lt_10_53762;
GPGPU-Sim PTX:    immediate post dominator      @  PC=0x1b40 (_1.ptx:1177) mov.f32 %f268, %f284;
GPGPU-Sim PTX: 43 (potential) branch divergence @  PC=0x1b48 (_1.ptx:1178) bra.uni $LDWendi___isnanf_192_1;
GPGPU-Sim PTX:    immediate post dominator      @  PC=0x2040 (_1.ptx:1375) mov.f32 %f394, 0f3f4ccccd;   // 0.8
GPGPU-Sim PTX: 44 (potential) branch divergence @  PC=0x1b60 (_1.ptx:1183) @!%p31 bra $Lt_10_59394;
GPGPU-Sim PTX:    immediate post dominator      @  PC=0x2040 (_1.ptx:1375) mov.f32 %f394, 0f3f4ccccd;   // 0.8
GPGPU-Sim PTX: 45 (potential) branch divergence @  PC=0x1b88 (_1.ptx:1188) @!%p32 bra $Lt_10_59394;
GPGPU-Sim PTX:    immediate post dominator      @  PC=0x2040 (_1.ptx:1375) mov.f32 %f394, 0f3f4ccccd;   // 0.8
GPGPU-Sim PTX: 46 (potential) branch divergence @  PC=0x1ba0 (_1.ptx:1192) bra.uni $LDWendi___isnanf_192_1;
GPGPU-Sim PTX:    immediate post dominator      @  PC=0x2040 (_1.ptx:1375) mov.f32 %f394, 0f3f4ccccd;   // 0.8
GPGPU-Sim PTX: 47 (potential) branch divergence @  PC=0x1bd8 (_1.ptx:1202) @%p33 bra $Lt_10_54530;
GPGPU-Sim PTX:    immediate post dominator      @  PC=0x1c20 (_1.ptx:1216) sub.s32 %r64, %r64, 127;
GPGPU-Sim PTX: 48 (potential) branch divergence @  PC=0x1c10 (_1.ptx:1211) bra.uni $Lt_10_54274;
GPGPU-Sim PTX:    immediate post dominator      @  PC=0x1c20 (_1.ptx:1216) sub.s32 %r64, %r64, 127;
GPGPU-Sim PTX: 49 (potential) branch divergence @  PC=0x1c58 (_1.ptx:1224) @!%p34 bra $Lt_10_54786;
GPGPU-Sim PTX:    immediate post dominator      @  PC=0x1c78 (_1.ptx:1232) mov.f32 %f302, 0fbf800000;   // -1
GPGPU-Sim PTX: 50 (potential) branch divergence @  PC=0x1eb0 (_1.ptx:1312) @%p35 bra $Lt_10_55298;
GPGPU-Sim PTX:    immediate post dominator      @  PC=0x1ed8 (_1.ptx:1321) mov.f32 %f367, %f365;
GPGPU-Sim PTX: 51 (potential) branch divergence @  PC=0x1f98 (_1.ptx:1346) @!%p38 bra $Lt_10_55810;
GPGPU-Sim PTX:    immediate post dominator      @  PC=0x1fa8 (_1.ptx:1351) mov.f32 %f284, %f386;
GPGPU-Sim PTX: 52 (potential) branch divergence @  PC=0x2018 (_1.ptx:1365) @%p39 bra $Lt_10_56322;
GPGPU-Sim PTX:    immediate post dominator      @  PC=0x2038 (_1.ptx:1372) mov.f32 %f268, %f284;
GPGPU-Sim PTX: 53 (potential) branch divergence @  PC=0x2158 (_1.ptx:1419) @%p40 bra $L_10_42242;
GPGPU-Sim PTX:    immediate post dominator      @  PC=0x2170 (_1.ptx:1424) sub.s32 %r86, %r24, 1;
GPGPU-Sim PTX: 54 (potential) branch divergence @  PC=0x2168 (_1.ptx:1421) @%p41 bra $L_10_41474;
GPGPU-Sim PTX:    immediate post dominator      @  PC=0x2170 (_1.ptx:1424) sub.s32 %r86, %r24, 1;
GPGPU-Sim PTX: 55 (potential) branch divergence @  PC=0x2190 (_1.ptx:1428) @%p42 bra $Lt_10_56834;
GPGPU-Sim PTX:    immediate post dominator      @  PC=0x2288 (_1.ptx:1464) ld.global.u32 %r92, [%rd4+0];
GPGPU-Sim PTX: 56 (potential) branch divergence @  PC=0x2280 (_1.ptx:1461) @%p43 bra $Lt_10_57346;
GPGPU-Sim PTX:    immediate post dominator      @  PC=0x2288 (_1.ptx:1464) ld.global.u32 %r92, [%rd4+0];
GPGPU-Sim PTX: ... end of reconvergence points for _Z6renderPjP4Nodejjff
GPGPU-Sim PTX: ... done pre-decoding instructions for '_Z6renderPjP4Nodejjff'.
GPGPU-Sim PTX: instruction assembly for function '_ZN4dim3C1Ejjj'...   done.
GPGPU-Sim PTX: finding reconvergence points for '_ZN4dim3C1Ejjj'...
GPGPU-Sim PTX: Finding dominators for '_ZN4dim3C1Ejjj'...
GPGPU-Sim PTX: Finding immediate dominators for '_ZN4dim3C1Ejjj'...
GPGPU-Sim PTX: Finding postdominators for '_ZN4dim3C1Ejjj'...
GPGPU-Sim PTX: Finding immediate postdominators for '_ZN4dim3C1Ejjj'...
GPGPU-Sim PTX: pre-decoding instructions for '_ZN4dim3C1Ejjj'...
GPGPU-Sim PTX: reconvergence points for _ZN4dim3C1Ejjj...
GPGPU-Sim PTX: ... end of reconvergence points for _ZN4dim3C1Ejjj
GPGPU-Sim PTX: ... done pre-decoding instructions for '_ZN4dim3C1Ejjj'.
GPGPU-Sim PTX: finished parsing EMBEDDED .ptx file _1.ptx
Adding _cuobjdump_1.ptx with cubin handle 1
GPGPU-Sim PTX: extracting embedded .ptx to temporary file "_ptx_n0pkve"
Running: cat _ptx_n0pkve | sed 's/.version 1.5/.version 1.4/' | sed 's/, texmode_independent//' | sed 's/\(\.extern \.const\[1\] .b8 \w\+\)\[\]/\1\[1\]/' | sed 's/const\[.\]/const\[0\]/g' > _ptx2_3ozWJ6
GPGPU-Sim PTX: generating ptxinfo using "$CUDA_INSTALL_PATH/bin/ptxas --gpu-name=sm_20 -v _ptx2_3ozWJ6 --output-file  /dev/null 2> _ptx_n0pkveinfo"
GPGPU-Sim PTX: Kernel '_Z6renderPjP4Nodejjff' : regs=45, lmem=4, smem=0, cmem=180
GPGPU-Sim PTX: removing ptxinfo using "rm -f _ptx_n0pkve _ptx2_3ozWJ6 _ptx_n0pkveinfo"
GPGPU-Sim PTX: loading globals with explicit initializers... 
GPGPU-Sim PTX: finished loading globals (0 bytes total).
GPGPU-Sim PTX: loading constants with explicit initializers...  done.
GPGPU-Sim PTX: __cudaRegisterVar: hostVar = 0x632880; deviceAddress = MView; deviceName = MView
GPGPU-Sim PTX: __cudaRegisterVar: Registering const memory space of 48 bytes
GPGPU-Sim PTX registering constant MView (48 bytes) to name mapping
GPGPU-Sim PTX: __cudaRegisterVar: hostVar = 0x6328c0; deviceAddress = cnode; deviceName = cnode
GPGPU-Sim PTX: __cudaRegisterVar: Registering const memory space of 160 bytes
GPGPU-Sim PTX registering constant cnode (160 bytes) to name mapping
GPGPU-Sim PTX: cudaMemcpyToSymbol: symbol = 0x6328c0
GPGPU-Sim PTX: starting gpgpu_ptx_sim_memcpy_symbol with hostVar 0x0x6328c0
GPGPU-Sim PTX: gpgpu_ptx_sim_memcpy_symbol: Found PTX symbol w/ hostVar=0x6328c0
GPGPU-Sim PTX: gpgpu_ptx_sim_memcpy_symbol: copying const memory 160 bytes  to  symbol cnode+0 @0x100 ...
GPGPU-Sim PTX: cudaMemcpyToSymbol: symbol = 0x632880
GPGPU-Sim PTX: starting gpgpu_ptx_sim_memcpy_symbol with hostVar 0x0x632880
GPGPU-Sim PTX: gpgpu_ptx_sim_memcpy_symbol: Found PTX symbol w/ hostVar=0x632880
GPGPU-Sim PTX: gpgpu_ptx_sim_memcpy_symbol: copying const memory 48 bytes  to  symbol MView+0 @0x200 ...

GPGPU-Sim PTX: cudaLaunch for 0x0x40d033 (mode=performance simulation) on stream 0
GPGPU-Sim PTX: pushing kernel '_Z6renderPjP4Nodejjff' to stream 0, gridDim= (16,32,1) blockDim = (16,8,1) 
kernel '_Z6renderPjP4Nodejjff' transfer to GPU hardware scheduler
GPGPU-Sim uArch: Shader 1 bind to kernel 1 '_Z6renderPjP4Nodejjff'
GPGPU-Sim uArch: CTA/core = 5, limited by: regs
GPGPU-Sim uArch: core:  1, cta: 0 initialized @(1,0)
GPGPU-Sim uArch: Shader 2 bind to kernel 1 '_Z6renderPjP4Nodejjff'
GPGPU-Sim uArch: core:  2, cta: 0 initialized @(1,0)
GPGPU-Sim uArch: Shader 3 bind to kernel 1 '_Z6renderPjP4Nodejjff'
GPGPU-Sim uArch: core:  3, cta: 0 initialized @(1,0)
GPGPU-Sim uArch: Shader 4 bind to kernel 1 '_Z6renderPjP4Nodejjff'
GPGPU-Sim uArch: core:  4, cta: 0 initialized @(1,0)
GPGPU-Sim uArch: Shader 5 bind to kernel 1 '_Z6renderPjP4Nodejjff'
GPGPU-Sim uArch: core:  5, cta: 0 initialized @(1,0)
GPGPU-Sim uArch: Shader 6 bind to kernel 1 '_Z6renderPjP4Nodejjff'
GPGPU-Sim uArch: core:  6, cta: 0 initialized @(1,0)
GPGPU-Sim uArch: Shader 7 bind to kernel 1 '_Z6renderPjP4Nodejjff'
GPGPU-Sim uArch: core:  7, cta: 0 initialized @(1,0)
GPGPU-Sim uArch: Shader 8 bind to kernel 1 '_Z6renderPjP4Nodejjff'
GPGPU-Sim uArch: core:  8, cta: 0 initialized @(1,0)
GPGPU-Sim uArch: Shader 9 bind to kernel 1 '_Z6renderPjP4Nodejjff'
GPGPU-Sim uArch: core:  9, cta: 0 initialized @(1,0)
GPGPU-Sim uArch: Shader 10 bind to kernel 1 '_Z6renderPjP4Nodejjff'
GPGPU-Sim uArch: core: 10, cta: 0 initialized @(1,0)
GPGPU-Sim uArch: Shader 11 bind to kernel 1 '_Z6renderPjP4Nodejjff'
GPGPU-Sim uArch: core: 11, cta: 0 initialized @(1,0)
GPGPU-Sim uArch: Shader 12 bind to kernel 1 '_Z6renderPjP4Nodejjff'
GPGPU-Sim uArch: core: 12, cta: 0 initialized @(1,0)
GPGPU-Sim uArch: Shader 13 bind to kernel 1 '_Z6renderPjP4Nodejjff'
GPGPU-Sim uArch: core: 13, cta: 0 initialized @(1,0)
GPGPU-Sim uArch: Shader 14 bind to kernel 1 '_Z6renderPjP4Nodejjff'
GPGPU-Sim uArch: core: 14, cta: 0 initialized @(1,0)
GPGPU-Sim uArch: Shader 0 bind to kernel 1 '_Z6renderPjP4Nodejjff'
GPGPU-Sim uArch: core:  0, cta: 0 initialized @(1,0)
GPGPU-Sim uArch: core:  1, cta: 1 initialized @(2,0)
GPGPU-Sim uArch: core:  2, cta: 1 initialized @(2,0)
GPGPU-Sim uArch: core:  3, cta: 1 initialized @(2,0)
GPGPU-Sim uArch: core:  4, cta: 1 initialized @(2,0)
GPGPU-Sim uArch: core:  5, cta: 1 initialized @(2,0)
GPGPU-Sim uArch: core:  6, cta: 1 initialized @(2,0)
GPGPU-Sim uArch: core:  7, cta: 1 initialized @(2,0)
GPGPU-Sim uArch: core:  8, cta: 1 initialized @(2,0)
GPGPU-Sim uArch: core:  9, cta: 1 initialized @(2,0)
GPGPU-Sim uArch: core: 10, cta: 1 initialized @(2,0)
GPGPU-Sim uArch: core: 11, cta: 1 initialized @(2,0)
GPGPU-Sim uArch: core: 12, cta: 1 initialized @(2,0)
GPGPU-Sim uArch: core: 13, cta: 1 initialized @(2,0)
GPGPU-Sim uArch: core: 14, cta: 1 initialized @(2,0)
GPGPU-Sim uArch: core:  0, cta: 1 initialized @(2,0)
GPGPU-Sim uArch: core:  1, cta: 2 initialized @(3,0)
GPGPU-Sim uArch: core:  2, cta: 2 initialized @(3,0)
GPGPU-Sim uArch: core:  3, cta: 2 initialized @(3,0)
GPGPU-Sim uArch: core:  4, cta: 2 initialized @(3,0)
GPGPU-Sim uArch: core:  5, cta: 2 initialized @(3,0)
GPGPU-Sim uArch: core:  6, cta: 2 initialized @(3,0)
GPGPU-Sim uArch: core:  7, cta: 2 initialized @(3,0)
GPGPU-Sim uArch: core:  8, cta: 2 initialized @(3,0)
GPGPU-Sim uArch: core:  9, cta: 2 initialized @(3,0)
GPGPU-Sim uArch: core: 10, cta: 2 initialized @(3,0)
GPGPU-Sim uArch: core: 11, cta: 2 initialized @(3,0)
GPGPU-Sim uArch: core: 12, cta: 2 initialized @(3,0)
GPGPU-Sim uArch: core: 13, cta: 2 initialized @(3,0)
GPGPU-Sim uArch: core: 14, cta: 2 initialized @(3,0)
GPGPU-Sim uArch: core:  0, cta: 2 initialized @(3,0)
GPGPU-Sim uArch: core:  1, cta: 3 initialized @(4,0)
GPGPU-Sim uArch: core:  2, cta: 3 initialized @(4,0)
GPGPU-Sim uArch: core:  3, cta: 3 initialized @(4,0)
GPGPU-Sim uArch: core:  4, cta: 3 initialized @(4,0)
GPGPU-Sim uArch: core:  5, cta: 3 initialized @(4,0)
GPGPU-Sim uArch: core:  6, cta: 3 initialized @(4,0)
GPGPU-Sim uArch: core:  7, cta: 3 initialized @(4,0)
GPGPU-Sim uArch: core:  8, cta: 3 initialized @(4,0)
GPGPU-Sim uArch: core:  9, cta: 3 initialized @(4,0)
GPGPU-Sim uArch: core: 10, cta: 3 initialized @(4,0)
GPGPU-Sim uArch: core: 11, cta: 3 initialized @(4,0)
GPGPU-Sim uArch: core: 12, cta: 3 initialized @(4,0)
GPGPU-Sim uArch: core: 13, cta: 3 initialized @(4,0)
GPGPU-Sim uArch: core: 14, cta: 3 initialized @(4,0)
GPGPU-Sim uArch: core:  0, cta: 3 initialized @(4,0)
GPGPU-Sim uArch: core:  1, cta: 4 initialized @(5,0)
GPGPU-Sim uArch: core:  2, cta: 4 initialized @(5,0)
GPGPU-Sim uArch: core:  3, cta: 4 initialized @(5,0)
GPGPU-Sim uArch: core:  4, cta: 4 initialized @(5,0)
GPGPU-Sim uArch: core:  5, cta: 4 initialized @(5,0)
GPGPU-Sim uArch: core:  6, cta: 4 initialized @(5,0)
GPGPU-Sim uArch: core:  7, cta: 4 initialized @(5,0)
GPGPU-Sim uArch: core:  8, cta: 4 initialized @(5,0)
GPGPU-Sim uArch: core:  9, cta: 4 initialized @(5,0)
GPGPU-Sim uArch: core: 10, cta: 4 initialized @(5,0)
GPGPU-Sim uArch: core: 11, cta: 4 initialized @(5,0)
GPGPU-Sim uArch: core: 12, cta: 4 initialized @(5,0)
GPGPU-Sim uArch: core: 13, cta: 4 initialized @(5,0)
GPGPU-Sim uArch: core: 14, cta: 4 initialized @(5,0)
GPGPU-Sim uArch: core:  0, cta: 4 initialized @(5,0)
GPGPU-Sim uArch: cycles simulated: 500  inst.: 36032 (ipc=72.1) sim_rate=36032 (inst/sec) elapsed = 0:0:00:01 / Tue Apr 16 16:45:34 2019
GPGPU-Sim PTX: 100000 instructions simulated : ctaid=(7,0,0) tid=(15,1,0)
GPGPU-Sim uArch: cycles simulated: 3500  inst.: 166112 (ipc=47.5) sim_rate=83056 (inst/sec) elapsed = 0:0:00:02 / Tue Apr 16 16:45:35 2019
GPGPU-Sim PTX: 200000 instructions simulated : ctaid=(7,3,0) tid=(15,5,0)
GPGPU-Sim PTX: 300000 instructions simulated : ctaid=(2,0,0) tid=(15,1,0)
GPGPU-Sim uArch: cycles simulated: 5500  inst.: 363424 (ipc=66.1) sim_rate=121141 (inst/sec) elapsed = 0:0:00:03 / Tue Apr 16 16:45:36 2019
GPGPU-Sim PTX: 400000 instructions simulated : ctaid=(4,0,0) tid=(15,7,0)
GPGPU-Sim PTX: 500000 instructions simulated : ctaid=(14,1,0) tid=(15,5,0)
GPGPU-Sim PTX: 600000 instructions simulated : ctaid=(14,3,0) tid=(15,5,0)
GPGPU-Sim PTX: 700000 instructions simulated : ctaid=(7,4,0) tid=(15,1,0)
GPGPU-Sim uArch: cycles simulated: 7000  inst.: 732160 (ipc=104.6) sim_rate=183040 (inst/sec) elapsed = 0:0:00:04 / Tue Apr 16 16:45:37 2019
GPGPU-Sim PTX: 800000 instructions simulated : ctaid=(1,0,0) tid=(15,1,0)
GPGPU-Sim PTX: 900000 instructions simulated : ctaid=(6,1,0) tid=(15,1,0)
GPGPU-Sim PTX: 1000000 instructions simulated : ctaid=(15,3,0) tid=(15,5,0)
GPGPU-Sim PTX: 1100000 instructions simulated : ctaid=(2,0,0) tid=(15,7,0)
GPGPU-Sim uArch: cycles simulated: 8500  inst.: 1099232 (ipc=129.3) sim_rate=219846 (inst/sec) elapsed = 0:0:00:05 / Tue Apr 16 16:45:38 2019
GPGPU-Sim PTX: 1200000 instructions simulated : ctaid=(3,4,0) tid=(15,3,0)
GPGPU-Sim PTX: 1300000 instructions simulated : ctaid=(13,0,0) tid=(15,7,0)
GPGPU-Sim PTX: 1400000 instructions simulated : ctaid=(4,3,0) tid=(15,7,0)
GPGPU-Sim PTX: 1500000 instructions simulated : ctaid=(9,2,0) tid=(15,5,0)
GPGPU-Sim uArch: cycles simulated: 9500  inst.: 1538208 (ipc=161.9) sim_rate=256368 (inst/sec) elapsed = 0:0:00:06 / Tue Apr 16 16:45:39 2019
GPGPU-Sim PTX: 1600000 instructions simulated : ctaid=(13,3,0) tid=(15,5,0)
GPGPU-Sim PTX: 1700000 instructions simulated : ctaid=(6,1,0) tid=(15,3,0)
GPGPU-Sim PTX: 1800000 instructions simulated : ctaid=(8,2,0) tid=(15,7,0)
GPGPU-Sim uArch: cycles simulated: 10000  inst.: 1836000 (ipc=183.6) sim_rate=262285 (inst/sec) elapsed = 0:0:00:07 / Tue Apr 16 16:45:40 2019
GPGPU-Sim PTX: 1900000 instructions simulated : ctaid=(6,1,0) tid=(15,3,0)
GPGPU-Sim PTX: 2000000 instructions simulated : ctaid=(1,2,0) tid=(15,5,0)
GPGPU-Sim PTX: 2100000 instructions simulated : ctaid=(2,0,0) tid=(15,1,0)
GPGPU-Sim PTX: 2200000 instructions simulated : ctaid=(12,1,0) tid=(15,3,0)
GPGPU-Sim PTX: 2300000 instructions simulated : ctaid=(3,3,0) tid=(15,3,0)
GPGPU-Sim PTX: 2400000 instructions simulated : ctaid=(1,3,0) tid=(15,3,0)
GPGPU-Sim PTX: 2500000 instructions simulated : ctaid=(10,0,0) tid=(15,7,0)
GPGPU-Sim PTX: 2600000 instructions simulated : ctaid=(5,1,0) tid=(15,7,0)
GPGPU-Sim uArch: cycles simulated: 11000  inst.: 2580096 (ipc=234.6) sim_rate=322512 (inst/sec) elapsed = 0:0:00:08 / Tue Apr 16 16:45:41 2019
GPGPU-Sim PTX: 2700000 instructions simulated : ctaid=(5,3,0) tid=(15,5,0)
GPGPU-Sim PTX: 2800000 instructions simulated : ctaid=(10,1,0) tid=(15,7,0)
GPGPU-Sim PTX: 2900000 instructions simulated : ctaid=(2,4,0) tid=(15,1,0)
GPGPU-Sim PTX: 3000000 instructions simulated : ctaid=(9,1,0) tid=(15,7,0)
GPGPU-Sim uArch: cycles simulated: 11500  inst.: 2957056 (ipc=257.1) sim_rate=328561 (inst/sec) elapsed = 0:0:00:09 / Tue Apr 16 16:45:42 2019
GPGPU-Sim PTX: 3100000 instructions simulated : ctaid=(11,3,0) tid=(15,1,0)
GPGPU-Sim PTX: 3200000 instructions simulated : ctaid=(4,3,0) tid=(15,3,0)
GPGPU-Sim PTX: 3300000 instructions simulated : ctaid=(15,3,0) tid=(15,3,0)
GPGPU-Sim PTX: 3400000 instructions simulated : ctaid=(3,4,0) tid=(15,7,0)
GPGPU-Sim PTX: 3500000 instructions simulated : ctaid=(13,3,0) tid=(15,7,0)
GPGPU-Sim uArch: cycles simulated: 12500  inst.: 3427168 (ipc=274.2) sim_rate=342716 (inst/sec) elapsed = 0:0:00:10 / Tue Apr 16 16:45:43 2019
GPGPU-Sim PTX: 3600000 instructions simulated : ctaid=(15,2,0) tid=(15,1,0)
GPGPU-Sim PTX: 3700000 instructions simulated : ctaid=(7,0,0) tid=(15,7,0)
GPGPU-Sim PTX: 3800000 instructions simulated : ctaid=(13,3,0) tid=(15,1,0)
GPGPU-Sim uArch: cycles simulated: 13500  inst.: 3758592 (ipc=278.4) sim_rate=341690 (inst/sec) elapsed = 0:0:00:11 / Tue Apr 16 16:45:44 2019
GPGPU-Sim PTX: 3900000 instructions simulated : ctaid=(14,0,0) tid=(15,1,0)
GPGPU-Sim PTX: 4000000 instructions simulated : ctaid=(9,4,0) tid=(15,1,0)
GPGPU-Sim PTX: 4100000 instructions simulated : ctaid=(15,1,0) tid=(15,1,0)
GPGPU-Sim uArch: cycles simulated: 14500  inst.: 4040992 (ipc=278.7) sim_rate=336749 (inst/sec) elapsed = 0:0:00:12 / Tue Apr 16 16:45:45 2019
GPGPU-Sim PTX: 4200000 instructions simulated : ctaid=(1,0,0) tid=(15,1,0)
GPGPU-Sim PTX: 4300000 instructions simulated : ctaid=(3,0,0) tid=(15,5,0)
GPGPU-Sim PTX: 4400000 instructions simulated : ctaid=(11,0,0) tid=(15,3,0)
GPGPU-Sim PTX: 4500000 instructions simulated : ctaid=(6,3,0) tid=(15,1,0)
GPGPU-Sim uArch: cycles simulated: 15500  inst.: 4406400 (ipc=284.3) sim_rate=338953 (inst/sec) elapsed = 0:0:00:13 / Tue Apr 16 16:45:46 2019
GPGPU-Sim PTX: 4600000 instructions simulated : ctaid=(9,1,0) tid=(5,3,0)
GPGPU-Sim PTX: 4700000 instructions simulated : ctaid=(11,3,0) tid=(7,1,0)
GPGPU-Sim PTX: 4800000 instructions simulated : ctaid=(14,2,0) tid=(15,4,0)
GPGPU-Sim PTX: 4900000 instructions simulated : ctaid=(8,2,0) tid=(15,6,0)
GPGPU-Sim PTX: 5000000 instructions simulated : ctaid=(14,3,0) tid=(15,0,0)
GPGPU-Sim PTX: 5100000 instructions simulated : ctaid=(5,1,0) tid=(15,6,0)
GPGPU-Sim PTX: 5200000 instructions simulated : ctaid=(6,2,0) tid=(15,0,0)
GPGPU-Sim uArch: cycles simulated: 16500  inst.: 5134832 (ipc=311.2) sim_rate=366773 (inst/sec) elapsed = 0:0:00:14 / Tue Apr 16 16:45:47 2019
GPGPU-Sim PTX: 5300000 instructions simulated : ctaid=(2,0,0) tid=(15,4,0)
GPGPU-Sim PTX: 5400000 instructions simulated : ctaid=(12,2,0) tid=(5,2,0)
GPGPU-Sim PTX: 5500000 instructions simulated : ctaid=(14,3,0) tid=(12,0,0)
GPGPU-Sim PTX: 5600000 instructions simulated : ctaid=(0,3,0) tid=(15,3,0)
GPGPU-Sim uArch: cycles simulated: 17000  inst.: 5514571 (ipc=324.4) sim_rate=367638 (inst/sec) elapsed = 0:0:00:15 / Tue Apr 16 16:45:48 2019
GPGPU-Sim PTX: 5700000 instructions simulated : ctaid=(11,3,0) tid=(4,3,0)
GPGPU-Sim PTX: 5800000 instructions simulated : ctaid=(7,4,0) tid=(15,6,0)
GPGPU-Sim PTX: 5900000 instructions simulated : ctaid=(0,0,0) tid=(11,5,0)
GPGPU-Sim PTX: 6000000 instructions simulated : ctaid=(0,4,0) tid=(2,5,0)
GPGPU-Sim uArch: cycles simulated: 17500  inst.: 5827850 (ipc=333.0) sim_rate=364240 (inst/sec) elapsed = 0:0:00:16 / Tue Apr 16 16:45:49 2019
GPGPU-Sim PTX: 6100000 instructions simulated : ctaid=(0,2,0) tid=(11,5,0)
GPGPU-Sim PTX: 6200000 instructions simulated : ctaid=(1,0,0) tid=(11,3,0)
GPGPU-Sim PTX: 6300000 instructions simulated : ctaid=(13,1,0) tid=(11,7,0)
GPGPU-Sim PTX: 6400000 instructions simulated : ctaid=(11,1,0) tid=(11,7,0)
GPGPU-Sim uArch: cycles simulated: 19500  inst.: 6262596 (ipc=321.2) sim_rate=368388 (inst/sec) elapsed = 0:0:00:17 / Tue Apr 16 16:45:50 2019
GPGPU-Sim PTX: 6500000 instructions simulated : ctaid=(5,1,0) tid=(6,4,0)
GPGPU-Sim PTX: 6600000 instructions simulated : ctaid=(0,4,0) tid=(11,3,0)
GPGPU-Sim PTX: 6700000 instructions simulated : ctaid=(7,1,0) tid=(11,5,0)
GPGPU-Sim PTX: 6800000 instructions simulated : ctaid=(5,4,0) tid=(11,1,0)
GPGPU-Sim uArch: cycles simulated: 20500  inst.: 6655140 (ipc=324.6) sim_rate=369730 (inst/sec) elapsed = 0:0:00:18 / Tue Apr 16 16:45:51 2019
GPGPU-Sim PTX: 6900000 instructions simulated : ctaid=(7,3,0) tid=(11,1,0)
GPGPU-Sim PTX: 7000000 instructions simulated : ctaid=(7,2,0) tid=(11,1,0)
GPGPU-Sim PTX: 7100000 instructions simulated : ctaid=(2,3,0) tid=(11,5,0)
GPGPU-Sim PTX: 7200000 instructions simulated : ctaid=(2,1,0) tid=(11,1,0)
GPGPU-Sim uArch: cycles simulated: 21500  inst.: 7027908 (ipc=326.9) sim_rate=369889 (inst/sec) elapsed = 0:0:00:19 / Tue Apr 16 16:45:52 2019
GPGPU-Sim PTX: 7300000 instructions simulated : ctaid=(4,1,0) tid=(11,7,0)
GPGPU-Sim PTX: 7400000 instructions simulated : ctaid=(10,4,0) tid=(11,3,0)
GPGPU-Sim PTX: 7500000 instructions simulated : ctaid=(10,3,0) tid=(11,5,0)
GPGPU-Sim uArch: cycles simulated: 22500  inst.: 7376804 (ipc=327.9) sim_rate=368840 (inst/sec) elapsed = 0:0:00:20 / Tue Apr 16 16:45:53 2019
GPGPU-Sim PTX: 7600000 instructions simulated : ctaid=(10,2,0) tid=(11,5,0)
GPGPU-Sim PTX: 7700000 instructions simulated : ctaid=(2,0,0) tid=(11,3,0)
GPGPU-Sim PTX: 7800000 instructions simulated : ctaid=(13,3,0) tid=(11,5,0)
GPGPU-Sim uArch: cycles simulated: 23500  inst.: 7691076 (ipc=327.3) sim_rate=366241 (inst/sec) elapsed = 0:0:00:21 / Tue Apr 16 16:45:54 2019
GPGPU-Sim PTX: 7900000 instructions simulated : ctaid=(2,0,0) tid=(11,7,0)
GPGPU-Sim PTX: 8000000 instructions simulated : ctaid=(10,1,0) tid=(11,5,0)
GPGPU-Sim PTX: 8100000 instructions simulated : ctaid=(14,3,0) tid=(11,5,0)
GPGPU-Sim PTX: 8200000 instructions simulated : ctaid=(5,2,0) tid=(11,1,0)
GPGPU-Sim PTX: 8300000 instructions simulated : ctaid=(13,2,0) tid=(11,3,0)
GPGPU-Sim PTX: 8400000 instructions simulated : ctaid=(1,1,0) tid=(11,5,0)
GPGPU-Sim PTX: 8500000 instructions simulated : ctaid=(2,3,0) tid=(11,3,0)
GPGPU-Sim PTX: 8600000 instructions simulated : ctaid=(5,2,0) tid=(11,3,0)
GPGPU-Sim uArch: cycles simulated: 25000  inst.: 8405021 (ipc=336.2) sim_rate=382046 (inst/sec) elapsed = 0:0:00:22 / Tue Apr 16 16:45:55 2019
GPGPU-Sim PTX: 8700000 instructions simulated : ctaid=(2,3,0) tid=(7,1,0)
GPGPU-Sim PTX: 8800000 instructions simulated : ctaid=(14,1,0) tid=(9,3,0)
GPGPU-Sim PTX: 8900000 instructions simulated : ctaid=(1,3,0) tid=(11,7,0)
GPGPU-Sim PTX: 9000000 instructions simulated : ctaid=(0,3,0) tid=(7,2,0)
GPGPU-Sim uArch: cycles simulated: 25500  inst.: 8797972 (ipc=345.0) sim_rate=382520 (inst/sec) elapsed = 0:0:00:23 / Tue Apr 16 16:45:56 2019
GPGPU-Sim PTX: 9100000 instructions simulated : ctaid=(15,1,0) tid=(1,0,0)
GPGPU-Sim PTX: 9200000 instructions simulated : ctaid=(12,3,0) tid=(6,6,0)
GPGPU-Sim PTX: 9300000 instructions simulated : ctaid=(8,0,0) tid=(3,3,0)
GPGPU-Sim PTX: 9400000 instructions simulated : ctaid=(3,3,0) tid=(2,5,0)
GPGPU-Sim uArch: cycles simulated: 26000  inst.: 9200688 (ipc=353.9) sim_rate=383362 (inst/sec) elapsed = 0:0:00:24 / Tue Apr 16 16:45:57 2019
GPGPU-Sim PTX: 9500000 instructions simulated : ctaid=(8,0,0) tid=(9,7,0)
GPGPU-Sim PTX: 9600000 instructions simulated : ctaid=(3,3,0) tid=(15,2,0)
GPGPU-Sim PTX: 9700000 instructions simulated : ctaid=(5,3,0) tid=(1,6,0)
GPGPU-Sim PTX: 9800000 instructions simulated : ctaid=(8,2,0) tid=(3,5,0)
GPGPU-Sim PTX: 9900000 instructions simulated : ctaid=(14,3,0) tid=(13,3,0)
GPGPU-Sim PTX: 10000000 instructions simulated : ctaid=(9,4,0) tid=(8,5,0)
GPGPU-Sim uArch: cycles simulated: 27000  inst.: 9792430 (ipc=362.7) sim_rate=391697 (inst/sec) elapsed = 0:0:00:25 / Tue Apr 16 16:45:58 2019
GPGPU-Sim PTX: 10100000 instructions simulated : ctaid=(6,1,0) tid=(11,4,0)
GPGPU-Sim PTX: 10200000 instructions simulated : ctaid=(8,2,0) tid=(14,7,0)
GPGPU-Sim PTX: 10300000 instructions simulated : ctaid=(8,1,0) tid=(5,6,0)
GPGPU-Sim uArch: cycles simulated: 28500  inst.: 10115577 (ipc=354.9) sim_rate=389060 (inst/sec) elapsed = 0:0:00:26 / Tue Apr 16 16:45:59 2019
GPGPU-Sim PTX: 10400000 instructions simulated : ctaid=(1,3,0) tid=(3,5,0)
GPGPU-Sim uArch: Shader 10 finished CTA #4 (28665,0), 4 CTAs running
GPGPU-Sim uArch: core: 10, cta: 4 initialized @(28666,0)
GPGPU-Sim PTX: 10500000 instructions simulated : ctaid=(8,0,0) tid=(3,2,0)
GPGPU-Sim uArch: Shader 14 finished CTA #0 (28909,0), 4 CTAs running
GPGPU-Sim uArch: core: 14, cta: 0 initialized @(28910,0)
GPGPU-Sim uArch: Shader 7 finished CTA #3 (29240,0), 4 CTAs running
GPGPU-Sim uArch: core:  7, cta: 3 initialized @(29241,0)
GPGPU-Sim uArch: Shader 9 finished CTA #3 (29270,0), 4 CTAs running
GPGPU-Sim uArch: core:  9, cta: 3 initialized @(29271,0)
GPGPU-Sim PTX: 10600000 instructions simulated : ctaid=(11,1,0) tid=(6,7,0)
GPGPU-Sim uArch: Shader 9 finished CTA #4 (29297,0), 4 CTAs running
GPGPU-Sim uArch: core:  9, cta: 4 initialized @(29298,0)
GPGPU-Sim uArch: cycles simulated: 29500  inst.: 10385339 (ipc=352.0) sim_rate=384642 (inst/sec) elapsed = 0:0:00:27 / Tue Apr 16 16:46:00 2019
GPGPU-Sim uArch: Shader 7 finished CTA #4 (29520,0), 4 CTAs running
GPGPU-Sim uArch: core:  7, cta: 4 initialized @(29521,0)
GPGPU-Sim PTX: 10700000 instructions simulated : ctaid=(4,0,0) tid=(4,7,0)
GPGPU-Sim uArch: Shader 8 finished CTA #2 (29641,0), 4 CTAs running
GPGPU-Sim uArch: core:  8, cta: 2 initialized @(29642,0)
GPGPU-Sim uArch: Shader 8 finished CTA #3 (29665,0), 4 CTAs running
GPGPU-Sim uArch: core:  8, cta: 3 initialized @(29666,0)
GPGPU-Sim uArch: Shader 8 finished CTA #4 (29866,0), 4 CTAs running
GPGPU-Sim uArch: core:  8, cta: 4 initialized @(29867,0)
GPGPU-Sim uArch: Shader 6 finished CTA #2 (29871,0), 4 CTAs running
GPGPU-Sim uArch: core:  6, cta: 2 initialized @(29872,0)
GPGPU-Sim PTX: 10800000 instructions simulated : ctaid=(6,3,0) tid=(11,3,0)
GPGPU-Sim uArch: Shader 5 finished CTA #2 (30013,0), 4 CTAs running
GPGPU-Sim uArch: core:  5, cta: 2 initialized @(30014,0)
GPGPU-Sim uArch: Shader 0 finished CTA #0 (30023,0), 4 CTAs running
GPGPU-Sim uArch: core:  0, cta: 0 initialized @(30024,0)
GPGPU-Sim uArch: Shader 0 finished CTA #1 (30031,0), 4 CTAs running
GPGPU-Sim uArch: core:  0, cta: 1 initialized @(30032,0)
GPGPU-Sim uArch: Shader 5 finished CTA #3 (30107,0), 4 CTAs running
GPGPU-Sim uArch: core:  5, cta: 3 initialized @(30108,0)
GPGPU-Sim uArch: Shader 3 finished CTA #0 (30161,0), 4 CTAs running
GPGPU-Sim uArch: core:  3, cta: 0 initialized @(30162,0)
GPGPU-Sim uArch: Shader 1 finished CTA #0 (30171,0), 4 CTAs running
GPGPU-Sim uArch: core:  1, cta: 0 initialized @(30172,0)
GPGPU-Sim PTX: 10900000 instructions simulated : ctaid=(1,0,0) tid=(15,7,0)
GPGPU-Sim uArch: Shader 1 finished CTA #1 (30227,0), 4 CTAs running
GPGPU-Sim uArch: core:  1, cta: 1 initialized @(30228,0)
GPGPU-Sim uArch: Shader 4 finished CTA #1 (30267,0), 4 CTAs running
GPGPU-Sim uArch: core:  4, cta: 1 initialized @(30268,0)
GPGPU-Sim uArch: Shader 6 finished CTA #3 (30283,0), 4 CTAs running
GPGPU-Sim uArch: core:  6, cta: 3 initialized @(30284,0)
GPGPU-Sim uArch: Shader 6 finished CTA #4 (30322,0), 4 CTAs running
GPGPU-Sim uArch: core:  6, cta: 4 initialized @(30323,0)
GPGPU-Sim uArch: Shader 0 finished CTA #3 (30333,0), 4 CTAs running
GPGPU-Sim uArch: core:  0, cta: 3 initialized @(30334,0)
GPGPU-Sim uArch: Shader 3 finished CTA #1 (30353,0), 4 CTAs running
GPGPU-Sim uArch: core:  3, cta: 1 initialized @(30354,0)
GPGPU-Sim uArch: Shader 5 finished CTA #4 (30357,0), 4 CTAs running
GPGPU-Sim uArch: core:  5, cta: 4 initialized @(30358,0)
GPGPU-Sim uArch: Shader 1 finished CTA #2 (30401,0), 4 CTAs running
GPGPU-Sim uArch: core:  1, cta: 2 initialized @(30402,0)
GPGPU-Sim uArch: Shader 3 finished CTA #2 (30421,0), 4 CTAs running
GPGPU-Sim uArch: core:  3, cta: 2 initialized @(30422,0)
GPGPU-Sim uArch: Shader 2 finished CTA #0 (30435,0), 4 CTAs running
GPGPU-Sim uArch: core:  2, cta: 0 initialized @(30436,0)
GPGPU-Sim uArch: Shader 0 finished CTA #4 (30487,0), 4 CTAs running
GPGPU-Sim uArch: core:  0, cta: 4 initialized @(30488,0)
GPGPU-Sim uArch: Shader 0 finished CTA #2 (30495,0), 4 CTAs running
GPGPU-Sim uArch: core:  0, cta: 2 initialized @(30496,0)
GPGPU-Sim uArch: cycles simulated: 30500  inst.: 10708090 (ipc=351.1) sim_rate=382431 (inst/sec) elapsed = 0:0:00:28 / Tue Apr 16 16:46:01 2019
GPGPU-Sim PTX: 11000000 instructions simulated : ctaid=(3,6,0) tid=(8,0,0)
GPGPU-Sim uArch: Shader 2 finished CTA #1 (30519,0), 4 CTAs running
GPGPU-Sim uArch: core:  2, cta: 1 initialized @(30520,0)
GPGPU-Sim uArch: Shader 4 finished CTA #2 (30533,0), 4 CTAs running
GPGPU-Sim uArch: core:  4, cta: 2 initialized @(30534,0)
GPGPU-Sim uArch: Shader 2 finished CTA #2 (30646,0), 4 CTAs running
GPGPU-Sim uArch: core:  2, cta: 2 initialized @(30647,0)
GPGPU-Sim uArch: Shader 3 finished CTA #3 (30668,0), 4 CTAs running
GPGPU-Sim uArch: core:  3, cta: 3 initialized @(30669,0)
GPGPU-Sim uArch: Shader 3 finished CTA #4 (30676,0), 4 CTAs running
GPGPU-Sim uArch: core:  3, cta: 4 initialized @(30677,0)
GPGPU-Sim uArch: Shader 2 finished CTA #3 (30736,0), 4 CTAs running
GPGPU-Sim uArch: core:  2, cta: 3 initialized @(30737,0)
GPGPU-Sim PTX: 11100000 instructions simulated : ctaid=(10,0,0) tid=(9,4,0)
GPGPU-Sim uArch: Shader 2 finished CTA #4 (30947,0), 4 CTAs running
GPGPU-Sim uArch: core:  2, cta: 4 initialized @(30948,0)
GPGPU-Sim uArch: Shader 4 finished CTA #3 (30963,0), 4 CTAs running
GPGPU-Sim uArch: core:  4, cta: 3 initialized @(30964,0)
GPGPU-Sim uArch: cycles simulated: 31000  inst.: 10873544 (ipc=350.8) sim_rate=374949 (inst/sec) elapsed = 0:0:00:29 / Tue Apr 16 16:46:02 2019
GPGPU-Sim uArch: Shader 4 finished CTA #4 (31072,0), 4 CTAs running
GPGPU-Sim uArch: core:  4, cta: 4 initialized @(31073,0)
GPGPU-Sim uArch: Shader 1 finished CTA #4 (31103,0), 4 CTAs running
GPGPU-Sim uArch: core:  1, cta: 4 initialized @(31104,0)
GPGPU-Sim PTX: 11200000 instructions simulated : ctaid=(6,2,0) tid=(3,2,0)
GPGPU-Sim PTX: 11300000 instructions simulated : ctaid=(6,2,0) tid=(0,4,0)
GPGPU-Sim uArch: Shader 1 finished CTA #3 (31454,0), 4 CTAs running
GPGPU-Sim uArch: core:  1, cta: 3 initialized @(31455,0)
GPGPU-Sim uArch: cycles simulated: 31500  inst.: 11051892 (ipc=350.9) sim_rate=368396 (inst/sec) elapsed = 0:0:00:30 / Tue Apr 16 16:46:03 2019
GPGPU-Sim PTX: 11400000 instructions simulated : ctaid=(3,6,0) tid=(9,5,0)
GPGPU-Sim PTX: 11500000 instructions simulated : ctaid=(9,2,0) tid=(10,4,0)
GPGPU-Sim PTX: 11600000 instructions simulated : ctaid=(5,0,0) tid=(11,4,0)
GPGPU-Sim PTX: 11700000 instructions simulated : ctaid=(6,2,0) tid=(11,4,0)
GPGPU-Sim PTX: 11800000 instructions simulated : ctaid=(11,4,0) tid=(12,3,0)
GPGPU-Sim uArch: cycles simulated: 32500  inst.: 11511379 (ipc=354.2) sim_rate=371334 (inst/sec) elapsed = 0:0:00:31 / Tue Apr 16 16:46:04 2019
GPGPU-Sim PTX: 11900000 instructions simulated : ctaid=(9,5,0) tid=(1,2,0)
GPGPU-Sim PTX: 12000000 instructions simulated : ctaid=(1,7,0) tid=(8,5,0)
GPGPU-Sim uArch: cycles simulated: 33000  inst.: 11743500 (ipc=355.9) sim_rate=366984 (inst/sec) elapsed = 0:0:00:32 / Tue Apr 16 16:46:05 2019
GPGPU-Sim uArch: Shader 14 finished CTA #2 (33070,0), 4 CTAs running
GPGPU-Sim uArch: core: 14, cta: 2 initialized @(33071,0)
GPGPU-Sim PTX: 12100000 instructions simulated : ctaid=(15,4,0) tid=(5,3,0)
GPGPU-Sim uArch: Shader 7 finished CTA #2 (33088,0), 4 CTAs running
GPGPU-Sim uArch: core:  7, cta: 2 initialized @(33089,0)
GPGPU-Sim PTX: 12200000 instructions simulated : ctaid=(11,0,0) tid=(9,2,0)
GPGPU-Sim PTX: 12300000 instructions simulated : ctaid=(9,5,0) tid=(12,2,0)
GPGPU-Sim uArch: cycles simulated: 33500  inst.: 12016724 (ipc=358.7) sim_rate=364143 (inst/sec) elapsed = 0:0:00:33 / Tue Apr 16 16:46:06 2019
GPGPU-Sim PTX: 12400000 instructions simulated : ctaid=(13,5,0) tid=(9,4,0)
GPGPU-Sim PTX: 12500000 instructions simulated : ctaid=(0,5,0) tid=(3,5,0)
GPGPU-Sim PTX: 12600000 instructions simulated : ctaid=(7,4,0) tid=(2,3,0)
GPGPU-Sim uArch: cycles simulated: 34000  inst.: 12303386 (ipc=361.9) sim_rate=361864 (inst/sec) elapsed = 0:0:00:34 / Tue Apr 16 16:46:07 2019
GPGPU-Sim PTX: 12700000 instructions simulated : ctaid=(9,5,0) tid=(12,2,0)
GPGPU-Sim PTX: 12800000 instructions simulated : ctaid=(13,4,0) tid=(12,2,0)
GPGPU-Sim PTX: 12900000 instructions simulated : ctaid=(10,1,0) tid=(13,0,0)
GPGPU-Sim PTX: 13000000 instructions simulated : ctaid=(1,6,0) tid=(4,4,0)
GPGPU-Sim PTX: 13100000 instructions simulated : ctaid=(7,6,0) tid=(15,1,0)
GPGPU-Sim PTX: 13200000 instructions simulated : ctaid=(5,6,0) tid=(10,6,0)
GPGPU-Sim uArch: cycles simulated: 35000  inst.: 12862878 (ipc=367.5) sim_rate=367510 (inst/sec) elapsed = 0:0:00:35 / Tue Apr 16 16:46:08 2019
GPGPU-Sim PTX: 13300000 instructions simulated : ctaid=(7,4,0) tid=(2,3,0)
GPGPU-Sim PTX: 13400000 instructions simulated : ctaid=(8,3,0) tid=(13,3,0)
GPGPU-Sim PTX: 13500000 instructions simulated : ctaid=(7,3,0) tid=(7,3,0)
GPGPU-Sim uArch: cycles simulated: 35500  inst.: 13157425 (ipc=370.6) sim_rate=365484 (inst/sec) elapsed = 0:0:00:36 / Tue Apr 16 16:46:09 2019
GPGPU-Sim PTX: 13600000 instructions simulated : ctaid=(15,6,0) tid=(1,6,0)
GPGPU-Sim PTX: 13700000 instructions simulated : ctaid=(12,4,0) tid=(5,0,0)
GPGPU-Sim PTX: 13800000 instructions simulated : ctaid=(7,6,0) tid=(12,5,0)
GPGPU-Sim uArch: cycles simulated: 36000  inst.: 13439246 (ipc=373.3) sim_rate=363222 (inst/sec) elapsed = 0:0:00:37 / Tue Apr 16 16:46:10 2019
GPGPU-Sim PTX: 13900000 instructions simulated : ctaid=(7,1,0) tid=(11,6,0)
GPGPU-Sim PTX: 14000000 instructions simulated : ctaid=(7,6,0) tid=(5,4,0)
GPGPU-Sim uArch: cycles simulated: 36500  inst.: 13714422 (ipc=375.7) sim_rate=360905 (inst/sec) elapsed = 0:0:00:38 / Tue Apr 16 16:46:11 2019
GPGPU-Sim PTX: 14100000 instructions simulated : ctaid=(12,6,0) tid=(9,0,0)
GPGPU-Sim PTX: 14200000 instructions simulated : ctaid=(13,5,0) tid=(15,1,0)
GPGPU-Sim PTX: 14300000 instructions simulated : ctaid=(8,5,0) tid=(15,1,0)
GPGPU-Sim PTX: 14400000 instructions simulated : ctaid=(13,6,0) tid=(13,2,0)
GPGPU-Sim PTX: 14500000 instructions simulated : ctaid=(8,5,0) tid=(10,2,0)
GPGPU-Sim PTX: 14600000 instructions simulated : ctaid=(11,6,0) tid=(14,7,0)
GPGPU-Sim uArch: cycles simulated: 37500  inst.: 14232469 (ipc=379.5) sim_rate=364935 (inst/sec) elapsed = 0:0:00:39 / Tue Apr 16 16:46:12 2019
GPGPU-Sim PTX: 14700000 instructions simulated : ctaid=(9,0,0) tid=(8,2,0)
GPGPU-Sim PTX: 14800000 instructions simulated : ctaid=(9,5,0) tid=(10,5,0)
GPGPU-Sim uArch: Shader 13 finished CTA #2 (37938,0), 4 CTAs running
GPGPU-Sim uArch: core: 13, cta: 2 initialized @(37939,0)
GPGPU-Sim uArch: cycles simulated: 38000  inst.: 14495735 (ipc=381.5) sim_rate=362393 (inst/sec) elapsed = 0:0:00:40 / Tue Apr 16 16:46:13 2019
GPGPU-Sim PTX: 14900000 instructions simulated : ctaid=(0,7,0) tid=(6,3,0)
GPGPU-Sim PTX: 15000000 instructions simulated : ctaid=(1,6,0) tid=(9,2,0)
GPGPU-Sim PTX: 15100000 instructions simulated : ctaid=(1,7,0) tid=(13,6,0)
GPGPU-Sim PTX: 15200000 instructions simulated : ctaid=(10,0,0) tid=(9,4,0)
GPGPU-Sim uArch: Shader 14 finished CTA #3 (38673,0), 4 CTAs running
GPGPU-Sim uArch: core: 14, cta: 3 initialized @(38674,0)
GPGPU-Sim PTX: 15300000 instructions simulated : ctaid=(14,5,0) tid=(11,4,0)
GPGPU-Sim PTX: 15400000 instructions simulated : ctaid=(12,0,0) tid=(0,4,0)
GPGPU-Sim uArch: cycles simulated: 39000  inst.: 15050309 (ipc=385.9) sim_rate=367080 (inst/sec) elapsed = 0:0:00:41 / Tue Apr 16 16:46:14 2019
GPGPU-Sim PTX: 15500000 instructions simulated : ctaid=(15,5,0) tid=(14,6,0)
GPGPU-Sim PTX: 15600000 instructions simulated : ctaid=(9,5,0) tid=(11,2,0)
GPGPU-Sim PTX: 15700000 instructions simulated : ctaid=(7,2,0) tid=(4,2,0)
GPGPU-Sim uArch: cycles simulated: 39500  inst.: 15304138 (ipc=387.4) sim_rate=364384 (inst/sec) elapsed = 0:0:00:42 / Tue Apr 16 16:46:15 2019
GPGPU-Sim PTX: 15800000 instructions simulated : ctaid=(14,4,0) tid=(14,1,0)
GPGPU-Sim PTX: 15900000 instructions simulated : ctaid=(11,6,0) tid=(6,1,0)
GPGPU-Sim uArch: cycles simulated: 40000  inst.: 15546435 (ipc=388.7) sim_rate=361545 (inst/sec) elapsed = 0:0:00:43 / Tue Apr 16 16:46:16 2019
GPGPU-Sim PTX: 16000000 instructions simulated : ctaid=(13,5,0) tid=(5,3,0)
GPGPU-Sim PTX: 16100000 instructions simulated : ctaid=(9,4,0) tid=(9,5,0)
GPGPU-Sim PTX: 16200000 instructions simulated : ctaid=(13,5,0) tid=(2,7,0)
GPGPU-Sim PTX: 16300000 instructions simulated : ctaid=(12,4,0) tid=(0,2,0)
GPGPU-Sim PTX: 16400000 instructions simulated : ctaid=(1,6,0) tid=(3,0,0)
GPGPU-Sim uArch: cycles simulated: 41000  inst.: 16007854 (ipc=390.4) sim_rate=363814 (inst/sec) elapsed = 0:0:00:44 / Tue Apr 16 16:46:17 2019
GPGPU-Sim PTX: 16500000 instructions simulated : ctaid=(8,1,0) tid=(0,6,0)
GPGPU-Sim PTX: 16600000 instructions simulated : ctaid=(10,0,0) tid=(1,3,0)
GPGPU-Sim PTX: 16700000 instructions simulated : ctaid=(5,6,0) tid=(5,6,0)
GPGPU-Sim uArch: cycles simulated: 41500  inst.: 16261948 (ipc=391.9) sim_rate=361376 (inst/sec) elapsed = 0:0:00:45 / Tue Apr 16 16:46:18 2019
GPGPU-Sim PTX: 16800000 instructions simulated : ctaid=(11,4,0) tid=(13,1,0)
GPGPU-Sim PTX: 16900000 instructions simulated : ctaid=(13,4,0) tid=(9,7,0)
GPGPU-Sim uArch: cycles simulated: 42000  inst.: 16510894 (ipc=393.1) sim_rate=358932 (inst/sec) elapsed = 0:0:00:46 / Tue Apr 16 16:46:19 2019
GPGPU-Sim PTX: 17000000 instructions simulated : ctaid=(8,6,0) tid=(13,2,0)
GPGPU-Sim PTX: 17100000 instructions simulated : ctaid=(9,5,0) tid=(8,0,0)
GPGPU-Sim PTX: 17200000 instructions simulated : ctaid=(2,5,0) tid=(4,1,0)
GPGPU-Sim PTX: 17300000 instructions simulated : ctaid=(7,1,0) tid=(1,3,0)
GPGPU-Sim uArch: cycles simulated: 43000  inst.: 16926744 (ipc=393.6) sim_rate=360143 (inst/sec) elapsed = 0:0:00:47 / Tue Apr 16 16:46:20 2019
GPGPU-Sim PTX: 17400000 instructions simulated : ctaid=(8,4,0) tid=(5,7,0)
GPGPU-Sim PTX: 17500000 instructions simulated : ctaid=(2,7,0) tid=(5,1,0)
GPGPU-Sim PTX: 17600000 instructions simulated : ctaid=(13,4,0) tid=(4,5,0)
GPGPU-Sim uArch: Shader 5 finished CTA #1 (43938,0), 4 CTAs running
GPGPU-Sim uArch: core:  5, cta: 1 initialized @(43939,0)
GPGPU-Sim PTX: 17700000 instructions simulated : ctaid=(3,7,0) tid=(13,3,0)
GPGPU-Sim uArch: cycles simulated: 44000  inst.: 17229583 (ipc=391.6) sim_rate=358949 (inst/sec) elapsed = 0:0:00:48 / Tue Apr 16 16:46:21 2019
GPGPU-Sim PTX: 17800000 instructions simulated : ctaid=(6,7,0) tid=(5,5,0)
GPGPU-Sim PTX: 17900000 instructions simulated : ctaid=(11,4,0) tid=(6,1,0)
GPGPU-Sim PTX: 18000000 instructions simulated : ctaid=(10,5,0) tid=(8,1,0)
GPGPU-Sim uArch: cycles simulated: 45000  inst.: 17582862 (ipc=390.7) sim_rate=358833 (inst/sec) elapsed = 0:0:00:49 / Tue Apr 16 16:46:22 2019
GPGPU-Sim PTX: 18100000 instructions simulated : ctaid=(6,2,0) tid=(3,7,0)
GPGPU-Sim uArch: Shader 6 finished CTA #1 (45256,0), 4 CTAs running
GPGPU-Sim uArch: core:  6, cta: 1 initialized @(45257,0)
GPGPU-Sim PTX: 18200000 instructions simulated : ctaid=(10,0,0) tid=(3,3,0)
GPGPU-Sim uArch: Shader 4 finished CTA #0 (45360,0), 4 CTAs running
GPGPU-Sim uArch: core:  4, cta: 0 initialized @(45361,0)
GPGPU-Sim uArch: cycles simulated: 45500  inst.: 17802470 (ipc=391.3) sim_rate=356049 (inst/sec) elapsed = 0:0:00:50 / Tue Apr 16 16:46:23 2019
GPGPU-Sim PTX: 18300000 instructions simulated : ctaid=(7,2,0) tid=(3,5,0)
GPGPU-Sim PTX: 18400000 instructions simulated : ctaid=(5,5,0) tid=(3,6,0)
GPGPU-Sim PTX: 18500000 instructions simulated : ctaid=(14,6,0) tid=(9,7,0)
GPGPU-Sim uArch: Shader 14 finished CTA #0 (46038,0), 4 CTAs running
GPGPU-Sim uArch: core: 14, cta: 0 initialized @(46039,0)
GPGPU-Sim PTX: 18600000 instructions simulated : ctaid=(3,7,0) tid=(1,1,0)
GPGPU-Sim uArch: Shader 14 finished CTA #1 (46373,0), 4 CTAs running
GPGPU-Sim uArch: core: 14, cta: 1 initialized @(46374,0)
GPGPU-Sim PTX: 18700000 instructions simulated : ctaid=(7,6,0) tid=(6,3,0)
GPGPU-Sim uArch: cycles simulated: 46500  inst.: 18244110 (ipc=392.3) sim_rate=357727 (inst/sec) elapsed = 0:0:00:51 / Tue Apr 16 16:46:24 2019
GPGPU-Sim uArch: Shader 9 finished CTA #3 (46503,0), 4 CTAs running
[...]
maxmrqlatency = 559 
maxdqlatency = 0 
maxmflatency = 1999 
averagemflatency = 237 
max_icnt2mem_latency = 1092 
max_icnt2sh_latency = 169078 
mrq_lat_table:17833 	2278 	1588 	2571 	6460 	4418 	3695 	2179 	298 	6 	0 	0 	0 	0 	0 	0 	0 	0 	0 	0 	0 	0 	0 	0 	0 	0 	0 	0 	0 	0 	0 	0 	
dq_lat_table:0 	0 	0 	0 	0 	0 	0 	0 	0 	0 	0 	0 	0 	0 	0 	0 	0 	0 	0 	0 	0 	0 	0 	0 	0 	0 	0 	0 	0 	0 	0 	0 	
mf_lat_table:0 	0 	0 	0 	0 	0 	0 	71021 	12341 	4745 	845 	0 	0 	0 	0 	0 	0 	0 	0 	0 	0 	0 	0 	0 	0 	0 	0 	0 	0 	0 	0 	0 	
icnt2mem_lat_table:0 	0 	0 	30648 	23803 	18247 	31663 	1915 	2211 	520 	4 	0 	0 	0 	0 	0 	0 	0 	0 	0 	0 	0 	0 	0 	
icnt2sh_lat_table:0 	0 	0 	11880 	7472 	761 	9 	0 	0 	186 	498 	1378 	3099 	2639 	5868 	11414 	27088 	16660 	0 	0 	0 	0 	0 	0 	
mf_lat_pw_table:0 	0 	0 	0 	0 	0 	0 	289 	7 	17 	2 	0 	0 	0 	0 	0 	0 	0 	0 	0 	0 	0 	0 	0 	0 	0 	0 	0 	0 	0 	0 	0 	
maximum concurrent accesses to same row:
dram[0]:        54        56        36        38        29        32        27        22        28        22        14        18        15        14        20        18 
dram[1]:        52        54        45        32        20        22        33        22        24        16        10        23        16        15        19        22 
dram[2]:        62        62        54        56        30        30        26        21        28        26        20        20        23        25        29        22 
dram[3]:        58        60        54        56        28        30        23        22        30        22        15        14        22        14        16        18 
dram[4]:        64        64        56        52        30        32        23        23        24        22        18        21        15        21        40        20 
dram[5]:        66        60        56        48        28        83        22        22        22        25        16        21        12        14        32        22 
maximum service time to same row:
dram[0]:     42374     10381     39906     18059     25053     35778     18017     18234     18140     18595     22156     21156     22154     22160     21188     21224 
dram[1]:     22384     34613     41872     24587     18912     22650     18245     17914     17851     18356     22022     20928     22333     22458     25328     28900 
dram[2]:     13090     13909     30060     40982     26199     22246     17941     21487     18005     21665     21443     22258     23440     29586     29947     26176 
dram[3]:     17590     20852     41597     21428     17672     18301     17950     17865     23481     21925     44688     20957     39463     39426     23618     20904 
dram[4]:     41498     33354     18321     29403     19800     33279     18612     17840     18295     19540     22034     21799     24512     24452     37160     20153 
dram[5]:     28316     26438     31892     42955     18034     43024     18060     17225     17906     19256     18833     24832     24150     28068     21289     33548 
average row accesses per activate:
dram[0]:  6.271186  5.155844  6.666667  5.759259  3.432203  3.812500  3.824561  3.166667  3.154696  3.195980  3.354331  2.925926  3.325153  3.305556  3.797980  3.723214 
dram[1]:  4.894118  5.878788  6.400000  6.571429  3.512195  3.888889  3.679389  3.394958  3.133663  3.029412  2.843023  3.303279  2.891403  3.052632  3.412699  3.782178 
dram[2]:  5.479452  5.306452  7.861111  7.771429  3.678899  4.096774  3.427419  3.876190  3.123529  2.965909  3.218045  3.989474  3.520270  3.600000  4.367816  4.037037 
dram[3]:  4.868421  7.127660  9.538462  6.021276  3.905263  3.000000  3.902174  3.353846  3.220126  2.870786  3.222222  3.135338  3.460993  3.585714  3.866667  3.380952 
dram[4]:  8.243902  7.263158  7.631579  6.384615  3.439655  3.876106  4.522727  3.549618  3.260116  2.897059  3.174242  2.986928  3.174863  3.286517  4.223529  4.150943 
dram[5]:  7.270833  8.040000  8.583333  6.244444  3.472868  4.030612  3.190476  3.970874  3.295455  3.058201  3.070513  3.189781  3.535714  3.426829  3.794393  3.869159 
average row locality = 41326/11070 = 3.733153
number of total memory accesses made:
dram[0]:         0         0         0         0         0         0         0         0         0         0         0         0         0         0         0         0 
dram[1]:         0         0         0         0         0         0         0         0         0         0         0         0         0         0         0         0 
dram[2]:         0         0         0         0         0         0         0         0         0         0         0         0         0         0         0         0 
dram[3]:         0         0         0         0         0         0         0         0         0         0         0         0         0         0         0         0 
dram[4]:         0         0         0         0         0         0         0         0         0         0         0         0         0         0         0         0 
dram[5]:         0         0         0         0         0         0         0         0         0         0         0         0         0         0         0         0 
total accesses: 0
min_bank_accesses = 0!
min_chip_accesses = 0!
number of total read accesses:
dram[0]:       170       173       128       137       167       179       175       184       227       249       170       193       219       246       161       177 
dram[1]:       183       170       128       122       184       159       190       158       254       244       200       161       259       237       182       162 
dram[2]:       174       150       127       121       165       162       170       167       215       214       176       153       216       206       167       142 
dram[3]:       165       148       112       127       154       161       148       177       204       207       146       174       200       211       148       150 
dram[4]:       154       183       127       146       170       184       157       188       229       240       170       186       229       242       157       189 
dram[5]:       157       178       136       125       194       166       183       166       235       234       196       169       239       232       173       173 
total reads: 17212
bank skew: 259/112 = 2.31
chip skew: 2993/2632 = 1.14
number of total write accesses:
dram[0]:       200       224       152       174       238       248       261       272       344       387       256       281       323       349       215       240 
dram[1]:       233       218       160       154       248       226       292       246       379       374       289       242       380       343       248       220 
dram[2]:       226       179       156       151       236       219       255       240       316       308       252       226       305       298       213       185 
dram[3]:       205       187       136       156       217       217       211       259       308       304       231       243       288       291       200       205 
dram[4]:       184       231       163       186       229       254       241       277       335       351       249       271       352       343       202       251 
dram[5]:       192       224       173       156       254       229       286       243       345       344       283       268       355       330       233       241 
total reads: 24114
bank skew: 387/136 = 2.85
chip skew: 4252/3658 = 1.16
average mf latency per bank:
dram[0]:        731       626       906       818       635       591       532       519       395       342       492       437       373       345       464       423
dram[1]:        909       618       859       840       572       606       473       510       337       333       408       472       308       320       386       417
dram[2]:        615       752       922       945       628       640       546       561       407       403       482       530       378       383       434       491
dram[3]:        611       730      1014       869       637       656       582       498       409       396       510       479       384       374       464       451
dram[4]:        763       594       924       773       646       614       588       511       406       375       510       464       347       358       489       395
dram[5]:        709       588       857       843       538       615       471       515       363       362       431       452       316       339       400       385
maximum mf latency per bank:
dram[0]:       1295      1076      1674      1172      1999      1319      1373      1228      1356      1063      1289      1102      1497      1213      1244      1127
dram[1]:        962      1005      1318      1232      1284      1323      1131      1039      1064      1028      1095      1028       972       904       947       923
dram[2]:       1315      1333      1762      1750      1536      1530      1661      1442      1351      1508      1234      1318      1445      1273      1189      1332
dram[3]:       1138      1370      1535      1699      1341      1483      1066      1450      1156      1089      1000      1198      1148      1183      1053      1123
dram[4]:       1393      1514      1843      1844      1677      1619      1533      1589      1552      1374      1286      1359      1410      1402      1490      1311
dram[5]:       1365      1329      1802      1570      1635      1549      1784      1704      1337      1271      1235      1223      1320      1238      1312      1264

Number of Memory Banks Accessed per Memory Operation per Warp (from 0):
0	0	0	0	0	0	0	0	0	0	0	0	0	0	0	0	0	0	0	0	0	0	0	0	0	0	0	0	0	0	0	0	0	0	0	0	0	0	0	0	0	0	0	0	0	0	0	0	0	0	0	0	0	0	0	0	0	0	0	0	0	0	0	0	0	0	0	0	0	0	0	0	0	0	0	0	0	0	0	0	0	0	0	0	0	0	0	0	0	0	0	0	0	0	0	0	
Average # of Memory Banks Accessed per Memory Operation per Warp=-nan

position of mrq chosen
0	0	0	0	0	0	0	0	0	0	0	0	0	0	0	0	

average position of mrq chosen = -nan
Memory Partition 0: 
Cache L2_bank_000:
MSHR contents

Cache L2_bank_001:
MSHR contents

In Dram Latency Queue (total = 0): 
DRAM[0]: 16 bks, busW=4 BL=8 CL=12, tRRD=2 tCCD=6, tRCD=12 tRAS=28 tRP=12 tRC=40
n_cmd=223183 n_nop=205496 n_act=1943 n_pre=1927 n_req=7119 n_rd=5910 n_write=7907 bw_util=0.1238
n_activity=70523 dram_eff=0.3918
bk0: 340a 213181i bk1: 346a 213259i bk2: 256a 214786i bk3: 274a 213424i bk4: 334a 210150i bk5: 358a 209938i bk6: 350a 208123i bk7: 368a 208054i bk8: 454a 206757i bk9: 498a 205186i bk10: 340a 208790i bk11: 386a 208347i bk12: 438a 207192i bk13: 492a 205241i bk14: 322a 210829i bk15: 354a 210034i 
dram_util_bins: 0 0 0 0 0 0 0 0 0 0
dram_eff_bins: 0 0 0 0 0 0 0 0 0 0
mrqq: max=16 avg=1.27662
Memory Partition 1: 
Cache L2_bank_002:
MSHR contents

Cache L2_bank_003:
MSHR contents

In Dram Latency Queue (total = 0): 
DRAM[1]: 16 bks, busW=4 BL=8 CL=12, tRRD=2 tCCD=6, tRCD=12 tRAS=28 tRP=12 tRC=40
n_cmd=223183 n_nop=205045 n_act=2048 n_pre=2032 n_req=7245 n_rd=5986 n_write=8072 bw_util=0.126
n_activity=73820 dram_eff=0.3809
bk0: 366a 212213i bk1: 340a 213540i bk2: 256a 214466i bk3: 244a 214682i bk4: 368a 209712i bk5: 318a 210806i bk6: 380a 208113i bk7: 316a 209946i bk8: 508a 205834i bk9: 488a 204907i bk10: 400a 207532i bk11: 322a 209888i bk12: 518a 203997i bk13: 474a 206057i bk14: 364a 209229i bk15: 324a 210783i 
dram_util_bins: 0 0 0 0 0 0 0 0 0 0
dram_eff_bins: 0 0 0 0 0 0 0 0 0 0
mrqq: max=16 avg=1.14287
Memory Partition 2: 
Cache L2_bank_004:
MSHR contents

Cache L2_bank_005:
MSHR contents

In Dram Latency Queue (total = 0): 
DRAM[2]: 16 bks, busW=4 BL=8 CL=12, tRRD=2 tCCD=6, tRCD=12 tRAS=28 tRP=12 tRC=40
n_cmd=223183 n_nop=207318 n_act=1667 n_pre=1651 n_req=6490 n_rd=5450 n_write=7097 bw_util=0.1124
n_activity=66178 dram_eff=0.3792
bk0: 348a 212923i bk1: 300a 214395i bk2: 254a 215511i bk3: 242a 215174i bk4: 330a 211264i bk5: 324a 212041i bk6: 340a 209063i bk7: 334a 209918i bk8: 430a 208396i bk9: 428a 207727i bk10: 352a 209588i bk11: 306a 212051i bk12: 432a 207880i bk13: 412a 208150i bk14: 334a 211296i bk15: 284a 212405i 
dram_util_bins: 0 0 0 0 0 0 0 0 0 0
dram_eff_bins: 0 0 0 0 0 0 0 0 0 0
mrqq: max=16 avg=1.13838
Memory Partition 3: 
Cache L2_bank_006:
MSHR contents

Cache L2_bank_007:
MSHR contents

In Dram Latency Queue (total = 0): 
DRAM[3]: 16 bks, busW=4 BL=8 CL=12, tRRD=2 tCCD=6, tRCD=12 tRAS=28 tRP=12 tRC=40
n_cmd=223183 n_nop=207648 n_act=1702 n_pre=1686 n_req=6290 n_rd=5264 n_write=6883 bw_util=0.1089
n_activity=65079 dram_eff=0.3733
bk0: 330a 213973i bk1: 296a 214673i bk2: 224a 216209i bk3: 254a 214958i bk4: 308a 212197i bk5: 322a 211460i bk6: 296a 212042i bk7: 354a 209757i bk8: 408a 209085i bk9: 414a 208493i bk10: 292a 211217i bk11: 348a 209663i bk12: 400a 208697i bk13: 422a 208347i bk14: 296a 212712i bk15: 300a 211672i 
dram_util_bins: 0 0 0 0 0 0 0 0 0 0
dram_eff_bins: 0 0 0 0 0 0 0 0 0 0
mrqq: max=16 avg=1.05812
Memory Partition 4: 
Cache L2_bank_008:
MSHR contents

Cache L2_bank_009:
MSHR contents

In Dram Latency Queue (total = 0): 
DRAM[4]: 16 bks, busW=4 BL=8 CL=12, tRRD=2 tCCD=6, tRCD=12 tRAS=28 tRP=12 tRC=40
n_cmd=223183 n_nop=205784 n_act=1850 n_pre=1834 n_req=7070 n_rd=5902 n_write=7813 bw_util=0.1229
n_activity=71781 dram_eff=0.3821
bk0: 308a 214535i bk1: 366a 212960i bk2: 254a 214287i bk3: 292a 213475i bk4: 340a 210083i bk5: 368a 209803i bk6: 314a 209999i bk7: 376a 208476i bk8: 458a 206898i bk9: 480a 205797i bk10: 340a 209345i bk11: 372a 208889i bk12: 458a 205804i bk13: 484a 205527i bk14: 314a 211375i bk15: 378a 209962i 
dram_util_bins: 0 0 0 0 0 0 0 0 0 0
dram_eff_bins: 0 0 0 0 0 0 0 0 0 0
mrqq: max=16 avg=1.17723
Memory Partition 5: 
Cache L2_bank_010:
MSHR contents

Cache L2_bank_011:
MSHR contents

In Dram Latency Queue (total = 0): 
DRAM[5]: 16 bks, busW=4 BL=8 CL=12, tRRD=2 tCCD=6, tRCD=12 tRAS=28 tRP=12 tRC=40
n_cmd=223183 n_nop=205688 n_act=1860 n_pre=1844 n_req=7112 n_rd=5912 n_write=7879 bw_util=0.1236
n_activity=72690 dram_eff=0.3794
bk0: 314a 213623i bk1: 356a 213809i bk2: 272a 214444i bk3: 250a 215166i bk4: 388a 209494i bk5: 332a 211683i bk6: 366a 208534i bk7: 332a 210464i bk8: 470a 207391i bk9: 468a 206730i bk10: 392a 208460i bk11: 338a 209062i bk12: 478a 205432i bk13: 464a 205785i bk14: 346a 210766i bk15: 346a 209755i 
dram_util_bins: 0 0 0 0 0 0 0 0 0 0
dram_eff_bins: 0 0 0 0 0 0 0 0 0 0
mrqq: max=16 avg=1.14002

========= L2 cache stats =========
L2_cache_bank[0]: Access = 9020, Miss = 1417, Miss_rate = 0.157, Pending_hits = 50, Reservation_fails = 936
L2_cache_bank[1]: Access = 9297, Miss = 1538, Miss_rate = 0.165, Pending_hits = 46, Reservation_fails = 580
L2_cache_bank[2]: Access = 9543, Miss = 1580, Miss_rate = 0.166, Pending_hits = 53, Reservation_fails = 815
L2_cache_bank[3]: Access = 8843, Miss = 1413, Miss_rate = 0.160, Pending_hits = 50, Reservation_fails = 392
L2_cache_bank[4]: Access = 8779, Miss = 1410, Miss_rate = 0.161, Pending_hits = 51, Reservation_fails = 848
L2_cache_bank[5]: Access = 9070, Miss = 1315, Miss_rate = 0.145, Pending_hits = 43, Reservation_fails = 407
L2_cache_bank[6]: Access = 8942, Miss = 1277, Miss_rate = 0.143, Pending_hits = 52, Reservation_fails = 384
L2_cache_bank[7]: Access = 9078, Miss = 1355, Miss_rate = 0.149, Pending_hits = 40, Reservation_fails = 416
L2_cache_bank[8]: Access = 9305, Miss = 1393, Miss_rate = 0.150, Pending_hits = 40, Reservation_fails = 663
L2_cache_bank[9]: Access = 8965, Miss = 1558, Miss_rate = 0.174, Pending_hits = 40, Reservation_fails = 242
L2_cache_bank[10]: Access = 9210, Miss = 1513, Miss_rate = 0.164, Pending_hits = 40, Reservation_fails = 586
L2_cache_bank[11]: Access = 8959, Miss = 1443, Miss_rate = 0.161, Pending_hits = 50, Reservation_fails = 323
L2_total_cache_accesses = 109011
L2_total_cache_misses = 17212
L2_total_cache_miss_rate = 0.1579
L2_total_cache_pending_hits = 555
L2_total_cache_reservation_fails = 6592
L2_total_cache_breakdown:
	L2_cache_stats_breakdown[GLOBAL_ACC_R][HIT] = 4632
	L2_cache_stats_breakdown[GLOBAL_ACC_R][HIT_RESERVED] = 11
	L2_cache_stats_breakdown[GLOBAL_ACC_R][MISS] = 260
	L2_cache_stats_breakdown[GLOBAL_ACC_R][RESERVATION_FAIL] = 330
	L2_cache_stats_breakdown[LOCAL_ACC_R][HIT] = 14412
	L2_cache_stats_breakdown[LOCAL_ACC_R][HIT_RESERVED] = 2
	L2_cache_stats_breakdown[LOCAL_ACC_R][MISS] = 775
	L2_cache_stats_breakdown[CONST_ACC_R][HIT] = 22
	L2_cache_stats_breakdown[CONST_ACC_R][HIT_RESERVED] = 6
	L2_cache_stats_breakdown[CONST_ACC_R][MISS] = 2
	L2_cache_stats_breakdown[CONST_ACC_R][RESERVATION_FAIL] = 574
	L2_cache_stats_breakdown[GLOBAL_ACC_W][HIT] = 5751
	L2_cache_stats_breakdown[GLOBAL_ACC_W][HIT_RESERVED] = 393
	L2_cache_stats_breakdown[GLOBAL_ACC_W][MISS] = 2048
	L2_cache_stats_breakdown[GLOBAL_ACC_W][RESERVATION_FAIL] = 7
	L2_cache_stats_breakdown[LOCAL_ACC_W][HIT] = 46765
	L2_cache_stats_breakdown[LOCAL_ACC_W][HIT_RESERVED] = 1
	L2_cache_stats_breakdown[LOCAL_ACC_W][MISS] = 13872
	L2_cache_stats_breakdown[LOCAL_ACC_W][RESERVATION_FAIL] = 192
	L2_cache_stats_breakdown[L1_WRBK_ACC][HIT] = 5311
	L2_cache_stats_breakdown[L1_WRBK_ACC][MISS] = 202
	L2_cache_stats_breakdown[INST_ACC_R][HIT] = 14351
	L2_cache_stats_breakdown[INST_ACC_R][HIT_RESERVED] = 142
	L2_cache_stats_breakdown[INST_ACC_R][MISS] = 53
	L2_cache_stats_breakdown[INST_ACC_R][RESERVATION_FAIL] = 5489
L2_cache_data_port_util = 0.174
L2_cache_fill_port_util = 0.034

icnt_total_pkts_mem_to_simt=242110
icnt_total_pkts_simt_to_mem=385378
LD_mem_lat_dist  0 0 0 0 0 0 0 0 0 0 0 0 0 0 0 0 0 0 0 0 0 0 0 0 0 0 0
ST_mem_lat_dist  0 0 0 0 0 0 0 0 0 0 0 0 0 0 0 0 0 0 0 0 0 0 0 0 0 0 0
----------------------------Interconnect-DETAILS--------------------------------
Class 0:
Packet latency average = 15.578
	minimum = 6
	maximum = 703
Network latency average = 12.6118
	minimum = 6
	maximum = 678
Slowest packet = 707
Flit latency average = 11.5094
	minimum = 6
	maximum = 674
Slowest flit = 10925
Fragmentation average = 0.0827165
	minimum = 0
	maximum = 551
Injected packet rate average = 0.0465505
	minimum = 0.0402829 (at node 1)
	maximum = 0.0538742 (at node 17)
Accepted packet rate average = 0.0465505
	minimum = 0.0386092 (at node 1)
	maximum = 0.0564411 (at node 17)
Injected flit rate average = 0.137452
	minimum = 0.111534 (at node 19)
	maximum = 0.162001 (at node 8)
Accepted flit rate average= 0.137452
	minimum = 0.0871309 (at node 1)
	maximum = 0.194495 (at node 23)
Injected packet length average = 2.95276
Accepted packet length average = 2.95276
Total in-flight flits = 0 (0 measured)
====== Overall Traffic Statistics ======
====== Traffic class 0 ======
Packet latency average = 15.578 (1 samples)
	minimum = 6 (1 samples)
	maximum = 703 (1 samples)
Network latency average = 12.6118 (1 samples)
	minimum = 6 (1 samples)
	maximum = 678 (1 samples)
Flit latency average = 11.5094 (1 samples)
	minimum = 6 (1 samples)
	maximum = 674 (1 samples)
Fragmentation average = 0.0827165 (1 samples)
	minimum = 0 (1 samples)
	maximum = 551 (1 samples)
Injected packet rate average = 0.0465505 (1 samples)
	minimum = 0.0402829 (1 samples)
	maximum = 0.0538742 (1 samples)
Accepted packet rate average = 0.0465505 (1 samples)
	minimum = 0.0386092 (1 samples)
	maximum = 0.0564411 (1 samples)
Injected flit rate average = 0.137452 (1 samples)
	minimum = 0.111534 (1 samples)
	maximum = 0.162001 (1 samples)
Accepted flit rate average = 0.137452 (1 samples)
	minimum = 0.0871309 (1 samples)
	maximum = 0.194495 (1 samples)
Injected packet size average = 2.95276 (1 samples)
Accepted packet size average = 2.95276 (1 samples)
Hops average = 1 (1 samples)
----------------------------END-of-Interconnect-DETAILS-------------------------


gpgpu_simulation_time = 0 days, 0 hrs, 3 min, 34 sec (214 sec)
gpgpu_simulation_rate = 292909 (inst/sec)
gpgpu_simulation_rate = 790 (cycle/sec)
GPGPU-Sim: synchronize waiting for inactive GPU simulation
GPGPU-Sim API: Stream Manager State
GPGPU-Sim: detected inactive GPU simulation thread

checksum=75ef40cb5b8e
Kernel Time: 213542.984375 
