

        *** GPGPU-Sim Simulator Version 3.2.2  [build 0] ***


GPGPU-Sim PTX: simulation mode 0 (can change with PTX_SIM_MODE_FUNC environment variable:
               1=functional simulation only, 0=detailed performance simulator)
GPGPU-Sim: Configuration options:

-network_mode                           1 # Interconnection network mode
-inter_config_file   config_fermi_islip.icnt # Interconnection network config file
-gpgpu_ptx_use_cuobjdump                    1 # Use cuobjdump to extract ptx and sass from binaries
-gpgpu_experimental_lib_support                    0 # Try to extract code from cuda libraries [Broken because of unknown cudaGetExportTable]
-gpgpu_ptx_convert_to_ptxplus                    0 # Convert SASS (native ISA) to ptxplus and run ptxplus
-gpgpu_ptx_force_max_capability                   20 # Force maximum compute capability
-gpgpu_ptx_inst_debug_to_file                    0 # Dump executed instructions' debug information to file
-gpgpu_ptx_inst_debug_file       inst_debug.txt # Executed instructions' debug output file
-gpgpu_ptx_inst_debug_thread_uid                    1 # Thread UID for executed instructions' debug output
-gpgpu_simd_model                       1 # 1 = post-dominator
-gpgpu_shader_core_pipeline              1536:32 # shader core pipeline config, i.e., {<nthread>:<warpsize>}
-gpgpu_tex_cache:l1  4:128:24,L:R:m:N:L,F:128:4,128:2 # per-shader L1 texture cache  (READ-ONLY) config  {<nsets>:<bsize>:<assoc>,<rep>:<wr>:<alloc>:<wr_alloc>,<mshr>:<N>:<merge>,<mq>:<rf>}
-gpgpu_const_cache:l1 64:64:2,L:R:f:N:L,A:2:32,4 # per-shader L1 constant memory cache  (READ-ONLY) config  {<nsets>:<bsize>:<assoc>,<rep>:<wr>:<alloc>:<wr_alloc>,<mshr>:<N>:<merge>,<mq>} 
-gpgpu_cache:il1     4:128:4,L:R:f:N:L,A:2:32,4 # shader L1 instruction cache config  {<nsets>:<bsize>:<assoc>,<rep>:<wr>:<alloc>:<wr_alloc>,<mshr>:<N>:<merge>,<mq>} 
-gpgpu_cache:dl1     64:128:8,L:L:m:N:H,A:32:8,8 # per-shader L1 data cache config  {<nsets>:<bsize>:<assoc>,<rep>:<wr>:<alloc>:<wr_alloc>,<mshr>:<N>:<merge>,<mq> | none}
-gpgpu_cache:dl1PrefL1                 none # per-shader L1 data cache config  {<nsets>:<bsize>:<assoc>,<rep>:<wr>:<alloc>:<wr_alloc>,<mshr>:<N>:<merge>,<mq> | none}
-gpgpu_cache:dl1PreShared                 none # per-shader L1 data cache config  {<nsets>:<bsize>:<assoc>,<rep>:<wr>:<alloc>:<wr_alloc>,<mshr>:<N>:<merge>,<mq> | none}
-gmem_skip_L1D                          0 # global memory access skip L1D cache (implements -Xptxas -dlcm=cg, default=no skip)
-gpgpu_perfect_mem                      0 # enable perfect memory mode (no cache miss)
-n_regfile_gating_group                    4 # group of lanes that should be read/written together)
-gpgpu_clock_gated_reg_file                    0 # enable clock gated reg file for power calculations
-gpgpu_clock_gated_lanes                    0 # enable clock gated lanes for power calculations
-gpgpu_shader_registers                32768 # Number of registers per shader core. Limits number of concurrent CTAs. (default 8192)
-gpgpu_shader_cta                       8 # Maximum number of concurrent CTAs in shader (default 8)
-gpgpu_num_cta_barriers                   16 # Maximum number of named barriers per CTA (default 16)
-gpgpu_n_clusters                      15 # number of processing clusters
-gpgpu_n_cores_per_cluster                    1 # number of simd cores per cluster
-gpgpu_n_cluster_ejection_buffer_size                    8 # number of packets in ejection buffer
-gpgpu_n_ldst_response_buffer_size                    2 # number of response packets in ld/st unit ejection buffer
-gpgpu_shmem_size                   16384 # Size of shared memory per shader core (default 16kB)
-gpgpu_shmem_size                   49152 # Size of shared memory per shader core (default 16kB)
-gpgpu_shmem_size_PrefL1                16384 # Size of shared memory per shader core (default 16kB)
-gpgpu_shmem_size_PrefShared                16384 # Size of shared memory per shader core (default 16kB)
-gpgpu_shmem_num_banks                   32 # Number of banks in the shared memory in each shader core (default 16)
-gpgpu_shmem_limited_broadcast                    0 # Limit shared memory to do one broadcast per cycle (default on)
-gpgpu_shmem_warp_parts                    1 # Number of portions a warp is divided into for shared memory bank conflict check 
-gpgpu_warpdistro_shader                   -1 # Specify which shader core to collect the warp size distribution from
-gpgpu_warp_issue_shader                    0 # Specify which shader core to collect the warp issue distribution from
-gpgpu_local_mem_map                    1 # Mapping from local memory space address to simulated GPU physical address space (default = enabled)
-gpgpu_num_reg_banks                   16 # Number of register banks (default = 8)
-gpgpu_reg_bank_use_warp_id                    0 # Use warp ID in mapping registers to banks (default = off)
-gpgpu_operand_collector_num_units_sp                    6 # number of collector units (default = 4)
-gpgpu_operand_collector_num_units_sfu                    8 # number of collector units (default = 4)
-gpgpu_operand_collector_num_units_mem                    2 # number of collector units (default = 2)
-gpgpu_operand_collector_num_units_gen                    0 # number of collector units (default = 0)
-gpgpu_operand_collector_num_in_ports_sp                    2 # number of collector unit in ports (default = 1)
-gpgpu_operand_collector_num_in_ports_sfu                    1 # number of collector unit in ports (default = 1)
-gpgpu_operand_collector_num_in_ports_mem                    1 # number of collector unit in ports (default = 1)
-gpgpu_operand_collector_num_in_ports_gen                    0 # number of collector unit in ports (default = 0)
-gpgpu_operand_collector_num_out_ports_sp                    2 # number of collector unit in ports (default = 1)
-gpgpu_operand_collector_num_out_ports_sfu                    1 # number of collector unit in ports (default = 1)
-gpgpu_operand_collector_num_out_ports_mem                    1 # number of collector unit in ports (default = 1)
-gpgpu_operand_collector_num_out_ports_gen                    0 # number of collector unit in ports (default = 0)
-gpgpu_coalesce_arch                   13 # Coalescing arch (default = 13, anything else is off for now)
-gpgpu_num_sched_per_core                    2 # Number of warp schedulers per core
-gpgpu_max_insn_issue_per_warp                    1 # Max number of instructions that can be issued per warp in one cycle by scheduler
-gpgpu_simt_core_sim_order                    1 # Select the simulation order of cores in a cluster (0=Fix, 1=Round-Robin)
-gpgpu_pipeline_widths        2,1,1,2,1,1,2 # Pipeline widths ID_OC_SP,ID_OC_SFU,ID_OC_MEM,OC_EX_SP,OC_EX_SFU,OC_EX_MEM,EX_WB
-gpgpu_num_sp_units                     2 # Number of SP units (default=1)
-gpgpu_num_sfu_units                    1 # Number of SF units (default=1)
-gpgpu_num_mem_units                    1 # Number if ldst units (default=1) WARNING: not hooked up to anything
-gpgpu_scheduler                      gto # Scheduler configuration: < lrr | gto | two_level_active > If two_level_active:<num_active_warps>:<inner_prioritization>:<outer_prioritization>For complete list of prioritization values see shader.h enum scheduler_prioritization_typeDefault: gto
-gpgpu_dram_scheduler                    1 # 0 = fifo, 1 = FR-FCFS (defaul)
-gpgpu_dram_partition_queues              8:8:8:8 # i2$:$2d:d2$:$2i
-l2_ideal                               0 # Use a ideal L2 cache that always hit
-gpgpu_cache:dl2     64:128:8,L:B:m:W:L,A:32:4,4:0,32 # unified banked L2 data cache config  {<nsets>:<bsize>:<assoc>,<rep>:<wr>:<alloc>:<wr_alloc>,<mshr>:<N>:<merge>,<mq>}
-gpgpu_cache:dl2_texture_only                    0 # L2 cache used for texture only
-gpgpu_n_mem                            6 # number of memory modules (e.g. memory controllers) in gpu
-gpgpu_n_sub_partition_per_mchannel                    2 # number of memory subpartition in each memory module
-gpgpu_n_mem_per_ctrlr                    2 # number of memory chips per memory controller
-gpgpu_memlatency_stat                   14 # track and display latency statistics 0x2 enables MC, 0x4 enables queue logs
-gpgpu_frfcfs_dram_sched_queue_size                   16 # 0 = unlimited (default); # entries per chip
-gpgpu_dram_return_queue_size                  116 # 0 = unlimited (default); # entries per chip
-gpgpu_dram_buswidth                    4 # default = 4 bytes (8 bytes per cycle at DDR)
-gpgpu_dram_burst_length                    8 # Burst length of each DRAM request (default = 4 data bus cycle)
-dram_data_command_freq_ratio                    4 # Frequency ratio between DRAM data bus and command bus (default = 2 times, i.e. DDR)
-gpgpu_dram_timing_opt nbk=16:CCD=2:RRD=6:RCD=12:RAS=28:RP=12:RC=40: CL=12:WL=4:CDLR=5:WR=12:nbkgrp=4:CCDL=3:RTPL=2 # DRAM timing parameters = {nbk:tCCD:tRRD:tRCD:tRAS:tRP:tRC:CL:WL:tCDLR:tWR:nbkgrp:tCCDL:tRTPL}
-rop_latency                          120 # ROP queue latency (default 85)
-dram_latency                         100 # DRAM latency (default 30)
-gpgpu_mem_addr_mapping dramid@8;00000000.00000000.00000000.00000000.0000RRRR.RRRRRRRR.BBBCCCCB.CCSSSSSS # mapping memory address to dram model {dramid@<start bit>;<memory address map>}
-gpgpu_mem_addr_test                    0 # run sweep test to check address mapping for aliased address
-gpgpu_mem_address_mask                    1 # 0 = old addressing mask, 1 = new addressing mask, 2 = new add. mask + flipped bank sel and chip sel bits
-gpuwattch_xml_file  gpuwattch_gtx480.xml # GPUWattch XML file
-power_simulation_enabled                    1 # Turn on power simulator (1=On, 0=Off)
-power_per_cycle_dump                    0 # Dump detailed power output each cycle
-power_trace_enabled                    0 # produce a file for the power trace (1=On, 0=Off)
-power_trace_zlevel                     6 # Compression level of the power trace output log (0=no comp, 9=highest)
-steady_power_levels_enabled                    0 # produce a file for the steady power levels (1=On, 0=Off)
-steady_state_definition                  8:4 # allowed deviation:number of samples
-gpgpu_max_cycle                        0 # terminates gpu simulation early (0 = no limit)
-gpgpu_max_insn                         0 # terminates gpu simulation early (0 = no limit)
-gpgpu_max_cta                          0 # terminates gpu simulation early (0 = no limit)
-gpgpu_runtime_stat                   500 # display runtime statistics such as dram utilization {<freq>:<flag>}
-liveness_message_freq                    1 # Minimum number of seconds between simulation liveness messages (0 = always print)
-gpgpu_flush_l1_cache                    0 # Flush L1 cache at the end of each kernel call
-gpgpu_flush_l2_cache                    0 # Flush L2 cache at the end of each kernel call
-gpgpu_deadlock_detect                    1 # Stop the simulation at deadlock (1=on (default), 0=off)
-gpgpu_ptx_instruction_classification                    0 # if enabled will classify ptx instruction types per kernel (Max 255 kernels now)
-gpgpu_ptx_sim_mode                     0 # Select between Performance (default) or Functional simulation (1)
-gpgpu_clock_domains 700.0:700.0:700.0:924.0 # Clock Domain Frequencies in MhZ {<Core Clock>:<ICNT Clock>:<L2 Clock>:<DRAM Clock>}
-gpgpu_max_concurrent_kernel                    8 # maximum kernels that can run concurrently on GPU
-gpgpu_cflog_interval                    0 # Interval between each snapshot in control flow logger
-visualizer_enabled                     0 # Turn on visualizer output (1=On, 0=Off)
-visualizer_outputfile                 NULL # Specifies the output log file for visualizer
-visualizer_zlevel                      6 # Compression level of the visualizer output log (0=no comp, 9=highest)
-trace_enabled                          0 # Turn on traces
-trace_components                    none # comma seperated list of traces to enable. Complete list found in trace_streams.tup. Default none
-trace_sampling_core                    0 # The core which is printed using CORE_DPRINTF. Default 0
-trace_sampling_memory_partition                   -1 # The memory partition which is printed using MEMPART_DPRINTF. Default -1 (i.e. all)
-enable_ptx_file_line_stats                    1 # Turn on PTX source line statistic profiling. (1 = On)
-ptx_line_stats_filename gpgpu_inst_stats.txt # Output file for PTX source line statistics.
-save_embedded_ptx                      0 # saves ptx files embedded in binary as <n>.ptx
-keep                                   0 # keep intermediate files created by GPGPU-Sim when interfacing with external programs
-gpgpu_ptx_save_converted_ptxplus                    0 # Saved converted ptxplus to a file
-ptx_opcode_latency_int         4,13,4,5,145 # Opcode latencies for integers <ADD,MAX,MUL,MAD,DIV>Default 1,1,19,25,145
-ptx_opcode_latency_fp          4,13,4,5,39 # Opcode latencies for single precision floating points <ADD,MAX,MUL,MAD,DIV>Default 1,1,1,1,30
-ptx_opcode_latency_dp         8,19,8,8,330 # Opcode latencies for double precision floating points <ADD,MAX,MUL,MAD,DIV>Default 8,8,8,8,335
-ptx_opcode_initiation_int            1,2,2,1,8 # Opcode initiation intervals for integers <ADD,MAX,MUL,MAD,DIV>Default 1,1,4,4,32
-ptx_opcode_initiation_fp            1,2,1,1,4 # Opcode initiation intervals for single precision floating points <ADD,MAX,MUL,MAD,DIV>Default 1,1,1,1,5
-ptx_opcode_initiation_dp         8,16,8,8,130 # Opcode initiation intervals for double precision floating points <ADD,MAX,MUL,MAD,DIV>Default 8,8,8,8,130
DRAM Timing Options:
nbk                                    16 # number of banks
CCD                                     2 # column to column delay
RRD                                     6 # minimal delay between activation of rows in different banks
RCD                                    12 # row to column delay
RAS                                    28 # time needed to activate row
RP                                     12 # time needed to precharge (deactivate) row
RC                                     40 # row cycle time
CDLR                                    5 # switching from write to read (changes tWTR)
WR                                     12 # last data-in to row precharge
CL                                     12 # CAS latency
WL                                      4 # Write latency
nbkgrp                                  4 # number of bank groups
CCDL                                    3 # column to column delay between accesses to different bank groups
RTPL                                    2 # read to precharge delay between accesses to different bank groups
Total number of memory sub partition = 12
addr_dec_mask[CHIP]  = 0000000000000000 	high:64 low:0
addr_dec_mask[BK]    = 000000000000e100 	high:16 low:8
addr_dec_mask[ROW]   = 000000000fff0000 	high:28 low:16
addr_dec_mask[COL]   = 0000000000001eff 	high:13 low:0
addr_dec_mask[BURST] = 000000000000003f 	high:6 low:0
sub_partition_id_mask = 0000000000000100
GPGPU-Sim uArch: clock freqs: 700000000.000000:700000000.000000:700000000.000000:924000000.000000
GPGPU-Sim uArch: clock periods: 0.00000000142857142857:0.00000000142857142857:0.00000000142857142857:0.00000000108225108225
*** Initializing Memory Statistics ***
GPGPU-Sim uArch: interconnect node map (shaderID+MemID to icntID)
GPGPU-Sim uArch: Memory nodes ID start from index: 15
GPGPU-Sim uArch:    0   1   2   3   4
GPGPU-Sim uArch:    5   6   7   8   9
GPGPU-Sim uArch:   10  11  12  13  14
GPGPU-Sim uArch:   15  16  17  18  19
GPGPU-Sim uArch:   20  21  22  23  24
GPGPU-Sim uArch:   25  26
GPGPU-Sim uArch: interconnect node reverse map (icntID to shaderID+MemID)
GPGPU-Sim uArch: Memory nodes start from ID: 15
GPGPU-Sim uArch:    0   1   2   3   4
GPGPU-Sim uArch:    5   6   7   8   9
GPGPU-Sim uArch:   10  11  12  13  14
GPGPU-Sim uArch:   15  16  17  18  19
GPGPU-Sim uArch:   20  21  22  23  24
GPGPU-Sim uArch:   25  26
ee89055bc58e180b7b05d1332bfe7767  /home/scratch/adwait/applications/benchmarks/CUDA/LPS/gpgpu_ptx_sim__LPS
GPGPU-Sim uArch: performance model initialization complete.
GPGPU-Sim PTX: __cudaRegisterFatBinary, fat_cubin_handle = 1, filename=laplace3d.cu
self exe links to: /home/scratch/adwait/applications/benchmarks/CUDA/LPS/gpgpu_ptx_sim__LPS
Running md5sum using "md5sum /home/scratch/adwait/applications/benchmarks/CUDA/LPS/gpgpu_ptx_sim__LPS "
Running cuobjdump using "$CUDA_INSTALL_PATH/bin/cuobjdump -ptx -elf -sass /home/scratch/adwait/applications/benchmarks/CUDA/LPS/gpgpu_ptx_sim__LPS > _cuobjdump_complete_output_QuKyJk"
Parsing file _cuobjdump_complete_output_QuKyJk
######### cuobjdump parser ########
## Adding new section ELF
Adding arch: sm_20
Adding identifier: laplace3d.cu
## Adding new section PTX
Adding ptx filename: _cuobjdump_1.ptx
Adding arch: sm_20
Adding identifier: laplace3d.cu
Done parsing!!!
GPGPU-Sim PTX: __cudaRegisterFunction _Z13GPU_laplace3diiiiPfS_ : hostFun 0x0x40566f, fat_cubin_handle = 1
GPGPU-Sim PTX: allocating shared region for "__cuda___cuda_local_var_33528_33_non_const_u132" from 0x0 to 0x990 (shared memory space)
GPGPU-Sim PTX: instruction assembly for function '_Z13GPU_laplace3diiiiPfS_'...   done.
GPGPU-Sim PTX: finding reconvergence points for '_Z13GPU_laplace3diiiiPfS_'...
GPGPU-Sim PTX: Finding dominators for '_Z13GPU_laplace3diiiiPfS_'...
GPGPU-Sim PTX: Finding immediate dominators for '_Z13GPU_laplace3diiiiPfS_'...
GPGPU-Sim PTX: Finding postdominators for '_Z13GPU_laplace3diiiiPfS_'...
GPGPU-Sim PTX: Finding immediate postdominators for '_Z13GPU_laplace3diiiiPfS_'...
GPGPU-Sim PTX: pre-decoding instructions for '_Z13GPU_laplace3diiiiPfS_'...
GPGPU-Sim PTX: reconvergence points for _Z13GPU_laplace3diiiiPfS_...
GPGPU-Sim PTX:  1 (potential) branch divergence @  PC=0x060 (_1.ptx:82) @!%p1 bra $Lt_0_14338;
GPGPU-Sim PTX:    immediate post dominator      @  PC=0x230 (_1.ptx:154) add.s32 %r57, %r37, %r12;
GPGPU-Sim PTX:  2 (potential) branch divergence @  PC=0x080 (_1.ptx:86) @%p2 bra $Lt_0_14850;
GPGPU-Sim PTX:    immediate post dominator      @  PC=0x120 (_1.ptx:113) add.s32 %r30, %r16, 1;
GPGPU-Sim PTX:  3 (potential) branch divergence @  PC=0x0a0 (_1.ptx:92) bra.uni $Lt_0_14594;
GPGPU-Sim PTX:    immediate post dominator      @  PC=0x120 (_1.ptx:113) add.s32 %r30, %r16, 1;
GPGPU-Sim PTX:  4 (potential) branch divergence @  PC=0x200 (_1.ptx:145) bra.uni $Lt_0_14082;
GPGPU-Sim PTX:    immediate post dominator      @  PC=0x230 (_1.ptx:154) add.s32 %r57, %r37, %r12;
GPGPU-Sim PTX:  5 (potential) branch divergence @  PC=0x290 (_1.ptx:166) @%p5 bra $Lt_0_15106;
GPGPU-Sim PTX:    immediate post dominator      @  PC=0x308 (_1.ptx:183) mov.u64 %rd1, __cuda___cuda_local_var_33528_33_non_const_u132;
GPGPU-Sim PTX:  6 (potential) branch divergence @  PC=0x320 (_1.ptx:186) @!%p6 bra $Lt_0_15618;
GPGPU-Sim PTX:    immediate post dominator      @  PC=0x380 (_1.ptx:200) ld.param.s32 %r73, [__cudaparm__Z13GPU_laplace3diiiiPfS__NZ];
GPGPU-Sim PTX:  7 (potential) branch divergence @  PC=0x398 (_1.ptx:203) @%p7 bra $Lt_0_16130;
GPGPU-Sim PTX:    immediate post dominator      @  PC=0x6d8 (_1.ptx:335) exit;
GPGPU-Sim PTX:  8 (potential) branch divergence @  PC=0x408 (_1.ptx:219) @%p8 bra $Lt_0_17410;
GPGPU-Sim PTX:    immediate post dominator      @  PC=0x4a0 (_1.ptx:245) @!%p6 bra $Lt_0_18434;
GPGPU-Sim PTX:  9 (potential) branch divergence @  PC=0x468 (_1.ptx:235) @%p9 bra $Lt_0_17410;
GPGPU-Sim PTX:    immediate post dominator      @  PC=0x4a0 (_1.ptx:245) @!%p6 bra $Lt_0_18434;
GPGPU-Sim PTX: 10 (potential) branch divergence @  PC=0x4a0 (_1.ptx:245) @!%p6 bra $Lt_0_18434;
GPGPU-Sim PTX:    immediate post dominator      @  PC=0x548 (_1.ptx:273) bar.sync 0;
GPGPU-Sim PTX: 11 (potential) branch divergence @  PC=0x510 (_1.ptx:262) @%p10 bra $Lt_0_18434;
GPGPU-Sim PTX:    immediate post dominator      @  PC=0x548 (_1.ptx:273) bar.sync 0;
GPGPU-Sim PTX: 12 (potential) branch divergence @  PC=0x560 (_1.ptx:276) @%p11 bra $Lt_0_18946;
GPGPU-Sim PTX:    immediate post dominator      @  PC=0x6b8 (_1.ptx:329) bar.sync 0;
GPGPU-Sim PTX: 13 (potential) branch divergence @  PC=0x578 (_1.ptx:280) @%p12 bra $Lt_0_20738;
GPGPU-Sim PTX:    immediate post dominator      @  PC=0x688 (_1.ptx:321) ld.param.u64 %rd35, [__cudaparm__Z13GPU_laplace3diiiiPfS__d_u2];
GPGPU-Sim PTX: 14 (potential) branch divergence @  PC=0x588 (_1.ptx:282) @%p13 bra $Lt_0_20738;
GPGPU-Sim PTX:    immediate post dominator      @  PC=0x688 (_1.ptx:321) ld.param.u64 %rd35, [__cudaparm__Z13GPU_laplace3diiiiPfS__d_u2];
GPGPU-Sim PTX: 15 (potential) branch divergence @  PC=0x5a0 (_1.ptx:285) @%p14 bra $Lt_0_20738;
GPGPU-Sim PTX:    immediate post dominator      @  PC=0x688 (_1.ptx:321) ld.param.u64 %rd35, [__cudaparm__Z13GPU_laplace3diiiiPfS__d_u2];
GPGPU-Sim PTX: 16 (potential) branch divergence @  PC=0x5b0 (_1.ptx:287) @%p15 bra $Lt_0_20738;
GPGPU-Sim PTX:    immediate post dominator      @  PC=0x688 (_1.ptx:321) ld.param.u64 %rd35, [__cudaparm__Z13GPU_laplace3diiiiPfS__d_u2];
GPGPU-Sim PTX: 17 (potential) branch divergence @  PC=0x5c8 (_1.ptx:290) @%p16 bra $Lt_0_20738;
GPGPU-Sim PTX:    immediate post dominator      @  PC=0x688 (_1.ptx:321) ld.param.u64 %rd35, [__cudaparm__Z13GPU_laplace3diiiiPfS__d_u2];
GPGPU-Sim PTX: 18 (potential) branch divergence @  PC=0x5d8 (_1.ptx:292) @%p17 bra $L_0_12546;
GPGPU-Sim PTX:    immediate post dominator      @  PC=0x688 (_1.ptx:321) ld.param.u64 %rd35, [__cudaparm__Z13GPU_laplace3diiiiPfS__d_u2];
GPGPU-Sim PTX: 19 (potential) branch divergence @  PC=0x600 (_1.ptx:300) bra.uni $L_0_12290;
GPGPU-Sim PTX:    immediate post dominator      @  PC=0x688 (_1.ptx:321) ld.param.u64 %rd35, [__cudaparm__Z13GPU_laplace3diiiiPfS__d_u2];
GPGPU-Sim PTX: 20 (potential) branch divergence @  PC=0x6d0 (_1.ptx:332) @%p18 bra $Lt_0_16642;
GPGPU-Sim PTX:    immediate post dominator      @  PC=0x6d8 (_1.ptx:335) exit;
GPGPU-Sim PTX: ... end of reconvergence points for _Z13GPU_laplace3diiiiPfS_
GPGPU-Sim PTX: ... done pre-decoding instructions for '_Z13GPU_laplace3diiiiPfS_'.
GPGPU-Sim PTX: finished parsing EMBEDDED .ptx file _1.ptx
Adding _cuobjdump_1.ptx with cubin handle 1
GPGPU-Sim PTX: extracting embedded .ptx to temporary file "_ptx_tiyJk6"
Running: cat _ptx_tiyJk6 | sed 's/.version 1.5/.version 1.4/' | sed 's/, texmode_independent//' | sed 's/\(\.extern \.const\[1\] .b8 \w\+\)\[\]/\1\[1\]/' | sed 's/const\[.\]/const\[0\]/g' > _ptx2_JXClXR
GPGPU-Sim PTX: generating ptxinfo using "$CUDA_INSTALL_PATH/bin/ptxas --gpu-name=sm_20 -v _ptx2_JXClXR --output-file  /dev/null 2> _ptx_tiyJk6info"
GPGPU-Sim PTX: Kernel '_Z13GPU_laplace3diiiiPfS_' : regs=17, lmem=0, smem=2448, cmem=64
GPGPU-Sim PTX: removing ptxinfo using "rm -f _ptx_tiyJk6 _ptx2_JXClXR _ptx_tiyJk6info"
GPGPU-Sim PTX: loading globals with explicit initializers... 
GPGPU-Sim PTX: finished loading globals (0 bytes total).
GPGPU-Sim PTX: loading constants with explicit initializers...  done.

Grid dimensions: 100 x 100 x 100
GPGPU-Sim PTX: cudaMallocPitch (width = 400)
GPGPU-Sim PTX: cudaMallocPitch (width = 400)
GPGPU-Sim: synchronize waiting for inactive GPU simulation
GPGPU-Sim API: Stream Manager State
GPGPU-Sim: detected inactive GPU simulation thread

Copy u1 to device: 72.249001 (ms) 

 dimGrid  = 4 25 1 
 dimBlock = 32 4 1 
GPGPU-Sim: synchronize waiting for inactive GPU simulation
GPGPU-Sim API: Stream Manager State
GPGPU-Sim: detected inactive GPU simulation thread

GPGPU-Sim PTX: cudaLaunch for 0x0x40566f (mode=performance simulation) on stream 0
GPGPU-Sim PTX: pushing kernel '_Z13GPU_laplace3diiiiPfS_' to stream 0, gridDim= (4,25,1) blockDim = (32,4,1) 
kernel '_Z13GPU_laplace3diiiiPfS_' transfer to GPU hardware scheduler
GPGPU-Sim uArch: Shader 1 bind to kernel 1 '_Z13GPU_laplace3diiiiPfS_'
GPGPU-Sim uArch: CTA/core = 8, limited by: cta_limit
GPGPU-Sim uArch: core:  1, cta: 0 initialized @(1,0)
GPGPU-Sim uArch: Shader 2 bind to kernel 1 '_Z13GPU_laplace3diiiiPfS_'
GPGPU-Sim uArch: core:  2, cta: 0 initialized @(1,0)
GPGPU-Sim uArch: Shader 3 bind to kernel 1 '_Z13GPU_laplace3diiiiPfS_'
GPGPU-Sim uArch: core:  3, cta: 0 initialized @(1,0)
GPGPU-Sim uArch: Shader 4 bind to kernel 1 '_Z13GPU_laplace3diiiiPfS_'
GPGPU-Sim uArch: core:  4, cta: 0 initialized @(1,0)
GPGPU-Sim uArch: Shader 5 bind to kernel 1 '_Z13GPU_laplace3diiiiPfS_'
GPGPU-Sim uArch: core:  5, cta: 0 initialized @(1,0)
GPGPU-Sim uArch: Shader 6 bind to kernel 1 '_Z13GPU_laplace3diiiiPfS_'
GPGPU-Sim uArch: core:  6, cta: 0 initialized @(1,0)
GPGPU-Sim uArch: Shader 7 bind to kernel 1 '_Z13GPU_laplace3diiiiPfS_'
GPGPU-Sim uArch: core:  7, cta: 0 initialized @(1,0)
GPGPU-Sim uArch: Shader 8 bind to kernel 1 '_Z13GPU_laplace3diiiiPfS_'
GPGPU-Sim uArch: core:  8, cta: 0 initialized @(1,0)
GPGPU-Sim uArch: Shader 9 bind to kernel 1 '_Z13GPU_laplace3diiiiPfS_'
GPGPU-Sim uArch: core:  9, cta: 0 initialized @(1,0)
GPGPU-Sim uArch: Shader 10 bind to kernel 1 '_Z13GPU_laplace3diiiiPfS_'
GPGPU-Sim uArch: core: 10, cta: 0 initialized @(1,0)
GPGPU-Sim uArch: Shader 11 bind to kernel 1 '_Z13GPU_laplace3diiiiPfS_'
GPGPU-Sim uArch: core: 11, cta: 0 initialized @(1,0)
GPGPU-Sim uArch: Shader 12 bind to kernel 1 '_Z13GPU_laplace3diiiiPfS_'
GPGPU-Sim uArch: core: 12, cta: 0 initialized @(1,0)
GPGPU-Sim uArch: Shader 13 bind to kernel 1 '_Z13GPU_laplace3diiiiPfS_'
GPGPU-Sim uArch: core: 13, cta: 0 initialized @(1,0)
GPGPU-Sim uArch: Shader 14 bind to kernel 1 '_Z13GPU_laplace3diiiiPfS_'
GPGPU-Sim uArch: core: 14, cta: 0 initialized @(1,0)
GPGPU-Sim uArch: Shader 0 bind to kernel 1 '_Z13GPU_laplace3diiiiPfS_'
GPGPU-Sim uArch: core:  0, cta: 0 initialized @(1,0)
GPGPU-Sim uArch: core:  1, cta: 1 initialized @(2,0)
GPGPU-Sim uArch: core:  2, cta: 1 initialized @(2,0)
GPGPU-Sim uArch: core:  3, cta: 1 initialized @(2,0)
GPGPU-Sim uArch: core:  4, cta: 1 initialized @(2,0)
GPGPU-Sim uArch: core:  5, cta: 1 initialized @(2,0)
GPGPU-Sim uArch: core:  6, cta: 1 initialized @(2,0)
GPGPU-Sim uArch: core:  7, cta: 1 initialized @(2,0)
GPGPU-Sim uArch: core:  8, cta: 1 initialized @(2,0)
GPGPU-Sim uArch: core:  9, cta: 1 initialized @(2,0)
GPGPU-Sim uArch: core: 10, cta: 1 initialized @(2,0)
GPGPU-Sim uArch: core: 11, cta: 1 initialized @(2,0)
GPGPU-Sim uArch: core: 12, cta: 1 initialized @(2,0)
GPGPU-Sim uArch: core: 13, cta: 1 initialized @(2,0)
GPGPU-Sim uArch: core: 14, cta: 1 initialized @(2,0)
GPGPU-Sim uArch: core:  0, cta: 1 initialized @(2,0)
GPGPU-Sim uArch: core:  1, cta: 2 initialized @(3,0)
GPGPU-Sim uArch: core:  2, cta: 2 initialized @(3,0)
GPGPU-Sim uArch: core:  3, cta: 2 initialized @(3,0)
GPGPU-Sim uArch: core:  4, cta: 2 initialized @(3,0)
GPGPU-Sim uArch: core:  5, cta: 2 initialized @(3,0)
GPGPU-Sim uArch: core:  6, cta: 2 initialized @(3,0)
GPGPU-Sim uArch: core:  7, cta: 2 initialized @(3,0)
GPGPU-Sim uArch: core:  8, cta: 2 initialized @(3,0)
GPGPU-Sim uArch: core:  9, cta: 2 initialized @(3,0)
GPGPU-Sim uArch: core: 10, cta: 2 initialized @(3,0)
GPGPU-Sim uArch: core: 11, cta: 2 initialized @(3,0)
GPGPU-Sim uArch: core: 12, cta: 2 initialized @(3,0)
GPGPU-Sim uArch: core: 13, cta: 2 initialized @(3,0)
GPGPU-Sim uArch: core: 14, cta: 2 initialized @(3,0)
GPGPU-Sim uArch: core:  0, cta: 2 initialized @(3,0)
GPGPU-Sim uArch: core:  1, cta: 3 initialized @(4,0)
GPGPU-Sim uArch: core:  2, cta: 3 initialized @(4,0)
GPGPU-Sim uArch: core:  3, cta: 3 initialized @(4,0)
GPGPU-Sim uArch: core:  4, cta: 3 initialized @(4,0)
GPGPU-Sim uArch: core:  5, cta: 3 initialized @(4,0)
GPGPU-Sim uArch: core:  6, cta: 3 initialized @(4,0)
GPGPU-Sim uArch: core:  7, cta: 3 initialized @(4,0)
GPGPU-Sim uArch: core:  8, cta: 3 initialized @(4,0)
GPGPU-Sim uArch: core:  9, cta: 3 initialized @(4,0)
GPGPU-Sim uArch: core: 10, cta: 3 initialized @(4,0)
GPGPU-Sim uArch: core: 11, cta: 3 initialized @(4,0)
GPGPU-Sim uArch: core: 12, cta: 3 initialized @(4,0)
GPGPU-Sim uArch: core: 13, cta: 3 initialized @(4,0)
GPGPU-Sim uArch: core: 14, cta: 3 initialized @(4,0)
GPGPU-Sim uArch: core:  0, cta: 3 initialized @(4,0)
GPGPU-Sim uArch: core:  1, cta: 4 initialized @(5,0)
GPGPU-Sim uArch: core:  2, cta: 4 initialized @(5,0)
GPGPU-Sim uArch: core:  3, cta: 4 initialized @(5,0)
GPGPU-Sim uArch: core:  4, cta: 4 initialized @(5,0)
GPGPU-Sim uArch: core:  5, cta: 4 initialized @(5,0)
GPGPU-Sim uArch: core:  6, cta: 4 initialized @(5,0)
GPGPU-Sim uArch: core:  7, cta: 4 initialized @(5,0)
GPGPU-Sim uArch: core:  8, cta: 4 initialized @(5,0)
GPGPU-Sim uArch: core:  9, cta: 4 initialized @(5,0)
GPGPU-Sim uArch: core: 10, cta: 4 initialized @(5,0)
GPGPU-Sim uArch: core: 11, cta: 4 initialized @(5,0)
GPGPU-Sim uArch: core: 12, cta: 4 initialized @(5,0)
GPGPU-Sim uArch: core: 13, cta: 4 initialized @(5,0)
GPGPU-Sim uArch: core: 14, cta: 4 initialized @(5,0)
GPGPU-Sim uArch: core:  0, cta: 4 initialized @(5,0)
GPGPU-Sim uArch: core:  1, cta: 5 initialized @(6,0)
GPGPU-Sim uArch: core:  2, cta: 5 initialized @(6,0)
GPGPU-Sim uArch: core:  3, cta: 5 initialized @(6,0)
GPGPU-Sim uArch: core:  4, cta: 5 initialized @(6,0)
GPGPU-Sim uArch: core:  5, cta: 5 initialized @(6,0)
GPGPU-Sim uArch: core:  6, cta: 5 initialized @(6,0)
GPGPU-Sim uArch: core:  7, cta: 5 initialized @(6,0)
GPGPU-Sim uArch: core:  8, cta: 5 initialized @(6,0)
GPGPU-Sim uArch: core:  9, cta: 5 initialized @(6,0)
GPGPU-Sim uArch: core: 10, cta: 5 initialized @(6,0)
GPGPU-Sim uArch: core: 11, cta: 5 initialized @(6,0)
GPGPU-Sim uArch: core: 12, cta: 5 initialized @(6,0)
GPGPU-Sim uArch: core: 13, cta: 5 initialized @(6,0)
GPGPU-Sim uArch: core: 14, cta: 5 initialized @(6,0)
GPGPU-Sim uArch: core:  0, cta: 5 initialized @(6,0)
GPGPU-Sim uArch: core:  1, cta: 6 initialized @(7,0)
GPGPU-Sim uArch: core:  2, cta: 6 initialized @(7,0)
GPGPU-Sim uArch: core:  3, cta: 6 initialized @(7,0)
GPGPU-Sim uArch: core:  4, cta: 6 initialized @(7,0)
GPGPU-Sim uArch: core:  5, cta: 6 initialized @(7,0)
GPGPU-Sim uArch: core:  6, cta: 6 initialized @(7,0)
GPGPU-Sim uArch: core:  7, cta: 6 initialized @(7,0)
GPGPU-Sim uArch: core:  8, cta: 6 initialized @(7,0)
GPGPU-Sim uArch: core:  9, cta: 6 initialized @(7,0)
GPGPU-Sim uArch: core: 10, cta: 6 initialized @(7,0)
GPGPU-Sim PTX: 100000 instructions simulated : ctaid=(1,4,0) tid=(31,1,0)
GPGPU-Sim uArch: cycles simulated: 500  inst.: 109668 (ipc=219.3) sim_rate=109668 (inst/sec) elapsed = 0:0:00:01 / Wed Apr 17 12:22:53 2019
GPGPU-Sim PTX: 200000 instructions simulated : ctaid=(2,22,0) tid=(19,2,0)
GPGPU-Sim PTX: 300000 instructions simulated : ctaid=(0,11,0) tid=(31,3,0)
GPGPU-Sim PTX: 400000 instructions simulated : ctaid=(0,23,0) tid=(15,1,0)
GPGPU-Sim PTX: 500000 instructions simulated : ctaid=(3,12,0) tid=(23,0,0)
GPGPU-Sim PTX: 600000 instructions simulated : ctaid=(3,12,0) tid=(11,1,0)
GPGPU-Sim PTX: 700000 instructions simulated : ctaid=(1,16,0) tid=(7,1,0)
GPGPU-Sim uArch: cycles simulated: 2000  inst.: 745558 (ipc=372.8) sim_rate=372779 (inst/sec) elapsed = 0:0:00:02 / Wed Apr 17 12:22:54 2019
GPGPU-Sim PTX: 800000 instructions simulated : ctaid=(3,2,0) tid=(31,1,0)
GPGPU-Sim PTX: 900000 instructions simulated : ctaid=(2,18,0) tid=(5,1,0)
GPGPU-Sim PTX: 1000000 instructions simulated : ctaid=(0,1,0) tid=(30,1,0)
GPGPU-Sim uArch: cycles simulated: 2500  inst.: 1000580 (ipc=400.2) sim_rate=333526 (inst/sec) elapsed = 0:0:00:03 / Wed Apr 17 12:22:55 2019
GPGPU-Sim PTX: 1100000 instructions simulated : ctaid=(1,24,0) tid=(27,3,0)
GPGPU-Sim PTX: 1200000 instructions simulated : ctaid=(0,2,0) tid=(19,2,0)
GPGPU-Sim uArch: cycles simulated: 3000  inst.: 1209156 (ipc=403.1) sim_rate=302289 (inst/sec) elapsed = 0:0:00:04 / Wed Apr 17 12:22:56 2019
GPGPU-Sim PTX: 1300000 instructions simulated : ctaid=(0,15,0) tid=(12,3,0)
GPGPU-Sim PTX: 1400000 instructions simulated : ctaid=(0,21,0) tid=(11,0,0)
GPGPU-Sim PTX: 1500000 instructions simulated : ctaid=(2,5,0) tid=(24,3,0)
GPGPU-Sim PTX: 1600000 instructions simulated : ctaid=(1,3,0) tid=(6,1,0)
GPGPU-Sim uArch: cycles simulated: 4500  inst.: 1507831 (ipc=335.1) sim_rate=301566 (inst/sec) elapsed = 0:0:00:05 / Wed Apr 17 12:22:57 2019
GPGPU-Sim PTX: 1700000 instructions simulated : ctaid=(1,9,0) tid=(3,0,0)
GPGPU-Sim PTX: 1800000 instructions simulated : ctaid=(0,19,0) tid=(7,0,0)
GPGPU-Sim PTX: 1900000 instructions simulated : ctaid=(1,20,0) tid=(3,3,0)
GPGPU-Sim uArch: cycles simulated: 5500  inst.: 1820102 (ipc=330.9) sim_rate=303350 (inst/sec) elapsed = 0:0:00:06 / Wed Apr 17 12:22:58 2019
GPGPU-Sim PTX: 2000000 instructions simulated : ctaid=(2,14,0) tid=(14,2,0)
GPGPU-Sim PTX: 2100000 instructions simulated : ctaid=(0,18,0) tid=(15,1,0)
GPGPU-Sim uArch: cycles simulated: 6500  inst.: 1962363 (ipc=301.9) sim_rate=280337 (inst/sec) elapsed = 0:0:00:07 / Wed Apr 17 12:22:59 2019
GPGPU-Sim PTX: 2200000 instructions simulated : ctaid=(0,22,0) tid=(26,1,0)
GPGPU-Sim PTX: 2300000 instructions simulated : ctaid=(3,4,0) tid=(2,1,0)
GPGPU-Sim PTX: 2400000 instructions simulated : ctaid=(2,1,0) tid=(13,2,0)
GPGPU-Sim PTX: 2500000 instructions simulated : ctaid=(2,3,0) tid=(12,3,0)
GPGPU-Sim PTX: 2600000 instructions simulated : ctaid=(3,5,0) tid=(24,0,0)
GPGPU-Sim PTX: 2700000 instructions simulated : ctaid=(1,19,0) tid=(16,1,0)
GPGPU-Sim uArch: cycles simulated: 7500  inst.: 2482870 (ipc=331.0) sim_rate=310358 (inst/sec) elapsed = 0:0:00:08 / Wed Apr 17 12:23:00 2019
GPGPU-Sim PTX: 2800000 instructions simulated : ctaid=(2,14,0) tid=(4,0,0)
GPGPU-Sim uArch: cycles simulated: 8000  inst.: 2596783 (ipc=324.6) sim_rate=288531 (inst/sec) elapsed = 0:0:00:09 / Wed Apr 17 12:23:01 2019
GPGPU-Sim PTX: 2900000 instructions simulated : ctaid=(3,6,0) tid=(2,3,0)
GPGPU-Sim PTX: 3000000 instructions simulated : ctaid=(1,0,0) tid=(8,3,0)
GPGPU-Sim PTX: 3100000 instructions simulated : ctaid=(2,8,0) tid=(24,3,0)
GPGPU-Sim PTX: 3200000 instructions simulated : ctaid=(0,13,0) tid=(2,1,0)
GPGPU-Sim PTX: 3300000 instructions simulated : ctaid=(0,15,0) tid=(10,3,0)
GPGPU-Sim uArch: cycles simulated: 9000  inst.: 3021955 (ipc=335.8) sim_rate=302195 (inst/sec) elapsed = 0:0:00:10 / Wed Apr 17 12:23:02 2019
GPGPU-Sim PTX: 3400000 instructions simulated : ctaid=(0,11,0) tid=(0,0,0)
GPGPU-Sim PTX: 3500000 instructions simulated : ctaid=(0,17,0) tid=(8,3,0)
GPGPU-Sim uArch: cycles simulated: 9500  inst.: 3263337 (ipc=343.5) sim_rate=296667 (inst/sec) elapsed = 0:0:00:11 / Wed Apr 17 12:23:03 2019
GPGPU-Sim PTX: 3600000 instructions simulated : ctaid=(1,23,0) tid=(29,3,0)
GPGPU-Sim PTX: 3700000 instructions simulated : ctaid=(1,8,0) tid=(10,2,0)
GPGPU-Sim uArch: cycles simulated: 10000  inst.: 3417511 (ipc=341.8) sim_rate=284792 (inst/sec) elapsed = 0:0:00:12 / Wed Apr 17 12:23:04 2019
GPGPU-Sim PTX: 3800000 instructions simulated : ctaid=(1,20,0) tid=(19,1,0)
GPGPU-Sim PTX: 3900000 instructions simulated : ctaid=(1,23,0) tid=(10,2,0)
GPGPU-Sim PTX: 4000000 instructions simulated : ctaid=(1,19,0) tid=(4,2,0)
GPGPU-Sim uArch: cycles simulated: 10500  inst.: 3625127 (ipc=345.3) sim_rate=278855 (inst/sec) elapsed = 0:0:00:13 / Wed Apr 17 12:23:05 2019
GPGPU-Sim PTX: 4100000 instructions simulated : ctaid=(0,22,0) tid=(11,0,0)
GPGPU-Sim PTX: 4200000 instructions simulated : ctaid=(0,1,0) tid=(16,1,0)
GPGPU-Sim PTX: 4300000 instructions simulated : ctaid=(2,18,0) tid=(27,3,0)
GPGPU-Sim uArch: cycles simulated: 11000  inst.: 3926972 (ipc=357.0) sim_rate=280498 (inst/sec) elapsed = 0:0:00:14 / Wed Apr 17 12:23:06 2019
GPGPU-Sim PTX: 4400000 instructions simulated : ctaid=(1,21,0) tid=(10,3,0)
GPGPU-Sim PTX: 4500000 instructions simulated : ctaid=(0,14,0) tid=(4,1,0)
GPGPU-Sim uArch: cycles simulated: 11500  inst.: 4125774 (ipc=358.8) sim_rate=275051 (inst/sec) elapsed = 0:0:00:15 / Wed Apr 17 12:23:07 2019
GPGPU-Sim PTX: 4600000 instructions simulated : ctaid=(3,7,0) tid=(2,0,0)
GPGPU-Sim PTX: 4700000 instructions simulated : ctaid=(2,10,0) tid=(28,2,0)
GPGPU-Sim PTX: 4800000 instructions simulated : ctaid=(1,7,0) tid=(2,1,0)
GPGPU-Sim uArch: cycles simulated: 12000  inst.: 4349213 (ipc=362.4) sim_rate=271825 (inst/sec) elapsed = 0:0:00:16 / Wed Apr 17 12:23:08 2019
GPGPU-Sim PTX: 4900000 instructions simulated : ctaid=(2,16,0) tid=(19,0,0)
GPGPU-Sim PTX: 5000000 instructions simulated : ctaid=(3,7,0) tid=(10,2,0)
GPGPU-Sim PTX: 5100000 instructions simulated : ctaid=(1,20,0) tid=(6,3,0)
GPGPU-Sim uArch: cycles simulated: 12500  inst.: 4645685 (ipc=371.7) sim_rate=273275 (inst/sec) elapsed = 0:0:00:17 / Wed Apr 17 12:23:09 2019
GPGPU-Sim PTX: 5200000 instructions simulated : ctaid=(1,20,0) tid=(15,2,0)
GPGPU-Sim PTX: 5300000 instructions simulated : ctaid=(3,14,0) tid=(1,1,0)
GPGPU-Sim uArch: cycles simulated: 13000  inst.: 4865826 (ipc=374.3) sim_rate=270323 (inst/sec) elapsed = 0:0:00:18 / Wed Apr 17 12:23:10 2019
GPGPU-Sim PTX: 5400000 instructions simulated : ctaid=(2,15,0) tid=(18,1,0)
GPGPU-Sim PTX: 5500000 instructions simulated : ctaid=(1,3,0) tid=(28,0,0)
GPGPU-Sim PTX: 5600000 instructions simulated : ctaid=(3,5,0) tid=(2,3,0)
GPGPU-Sim uArch: cycles simulated: 13500  inst.: 5115126 (ipc=378.9) sim_rate=269217 (inst/sec) elapsed = 0:0:00:19 / Wed Apr 17 12:23:11 2019
GPGPU-Sim PTX: 5700000 instructions simulated : ctaid=(0,13,0) tid=(6,0,0)
GPGPU-Sim PTX: 5800000 instructions simulated : ctaid=(0,14,0) tid=(2,3,0)
GPGPU-Sim PTX: 5900000 instructions simulated : ctaid=(2,5,0) tid=(2,2,0)
GPGPU-Sim uArch: cycles simulated: 14000  inst.: 5393148 (ipc=385.2) sim_rate=269657 (inst/sec) elapsed = 0:0:00:20 / Wed Apr 17 12:23:12 2019
GPGPU-Sim PTX: 6000000 instructions simulated : ctaid=(0,18,0) tid=(19,1,0)
GPGPU-Sim PTX: 6100000 instructions simulated : ctaid=(0,24,0) tid=(20,1,0)
GPGPU-Sim PTX: 6200000 instructions simulated : ctaid=(0,4,0) tid=(18,1,0)
GPGPU-Sim uArch: cycles simulated: 14500  inst.: 5630213 (ipc=388.3) sim_rate=268105 (inst/sec) elapsed = 0:0:00:21 / Wed Apr 17 12:23:13 2019
GPGPU-Sim PTX: 6300000 instructions simulated : ctaid=(2,10,0) tid=(28,3,0)
GPGPU-Sim PTX: 6400000 instructions simulated : ctaid=(2,14,0) tid=(16,3,0)
GPGPU-Sim PTX: 6500000 instructions simulated : ctaid=(2,4,0) tid=(20,1,0)
GPGPU-Sim uArch: cycles simulated: 15000  inst.: 5882607 (ipc=392.2) sim_rate=267391 (inst/sec) elapsed = 0:0:00:22 / Wed Apr 17 12:23:14 2019
GPGPU-Sim PTX: 6600000 instructions simulated : ctaid=(2,11,0) tid=(14,1,0)
GPGPU-Sim PTX: 6700000 instructions simulated : ctaid=(2,0,0) tid=(14,2,0)
GPGPU-Sim PTX: 6800000 instructions simulated : ctaid=(0,22,0) tid=(24,2,0)
GPGPU-Sim uArch: cycles simulated: 15500  inst.: 6162004 (ipc=397.5) sim_rate=267913 (inst/sec) elapsed = 0:0:00:23 / Wed Apr 17 12:23:15 2019
GPGPU-Sim PTX: 6900000 instructions simulated : ctaid=(1,5,0) tid=(26,0,0)
GPGPU-Sim PTX: 7000000 instructions simulated : ctaid=(0,17,0) tid=(24,3,0)
GPGPU-Sim PTX: 7100000 instructions simulated : ctaid=(2,8,0) tid=(0,2,0)
GPGPU-Sim PTX: 7200000 instructions simulated : ctaid=(0,10,0) tid=(16,1,0)
GPGPU-Sim PTX: 7300000 instructions simulated : ctaid=(1,24,0) tid=(15,0,0)
GPGPU-Sim uArch: cycles simulated: 16500  inst.: 6642395 (ipc=402.6) sim_rate=276766 (inst/sec) elapsed = 0:0:00:24 / Wed Apr 17 12:23:16 2019
GPGPU-Sim PTX: 7400000 instructions simulated : ctaid=(2,4,0) tid=(6,3,0)
GPGPU-Sim PTX: 7500000 instructions simulated : ctaid=(0,12,0) tid=(4,0,0)
GPGPU-Sim PTX: 7600000 instructions simulated : ctaid=(2,1,0) tid=(26,2,0)
GPGPU-Sim PTX: 7700000 instructions simulated : ctaid=(0,18,0) tid=(15,0,0)
GPGPU-Sim uArch: cycles simulated: 17000  inst.: 6912687 (ipc=406.6) sim_rate=276507 (inst/sec) elapsed = 0:0:00:25 / Wed Apr 17 12:23:17 2019
GPGPU-Sim PTX: 7800000 instructions simulated : ctaid=(1,15,0) tid=(14,2,0)
GPGPU-Sim PTX: 7900000 instructions simulated : ctaid=(0,5,0) tid=(10,3,0)
GPGPU-Sim uArch: cycles simulated: 17500  inst.: 7136283 (ipc=407.8) sim_rate=274472 (inst/sec) elapsed = 0:0:00:26 / Wed Apr 17 12:23:18 2019
GPGPU-Sim PTX: 8000000 instructions simulated : ctaid=(0,8,0) tid=(30,2,0)
GPGPU-Sim PTX: 8100000 instructions simulated : ctaid=(1,23,0) tid=(17,1,0)
GPGPU-Sim uArch: cycles simulated: 18000  inst.: 7333484 (ipc=407.4) sim_rate=271610 (inst/sec) elapsed = 0:0:00:27 / Wed Apr 17 12:23:19 2019
GPGPU-Sim PTX: 8200000 instructions simulated : ctaid=(2,4,0) tid=(3,2,0)
GPGPU-Sim PTX: 8300000 instructions simulated : ctaid=(2,10,0) tid=(21,3,0)
GPGPU-Sim PTX: 8400000 instructions simulated : ctaid=(0,6,0) tid=(29,3,0)
GPGPU-Sim PTX: 8500000 instructions simulated : ctaid=(0,22,0) tid=(21,1,0)
GPGPU-Sim PTX: 8600000 instructions simulated : ctaid=(3,17,0) tid=(13,3,0)
GPGPU-Sim PTX: 8700000 instructions simulated : ctaid=(0,15,0) tid=(17,0,0)
GPGPU-Sim uArch: cycles simulated: 19000  inst.: 7864170 (ipc=413.9) sim_rate=280863 (inst/sec) elapsed = 0:0:00:28 / Wed Apr 17 12:23:20 2019
GPGPU-Sim PTX: 8800000 instructions simulated : ctaid=(0,17,0) tid=(8,3,0)
GPGPU-Sim PTX: 8900000 instructions simulated : ctaid=(2,4,0) tid=(0,2,0)
GPGPU-Sim uArch: cycles simulated: 19500  inst.: 8068052 (ipc=413.7) sim_rate=278208 (inst/sec) elapsed = 0:0:00:29 / Wed Apr 17 12:23:21 2019
GPGPU-Sim PTX: 9000000 instructions simulated : ctaid=(1,6,0) tid=(24,3,0)
GPGPU-Sim PTX: 9100000 instructions simulated : ctaid=(0,14,0) tid=(8,1,0)
GPGPU-Sim PTX: 9200000 instructions simulated : ctaid=(2,2,0) tid=(9,2,0)
GPGPU-Sim uArch: cycles simulated: 20000  inst.: 8313332 (ipc=415.7) sim_rate=277111 (inst/sec) elapsed = 0:0:00:30 / Wed Apr 17 12:23:22 2019
GPGPU-Sim PTX: 9300000 instructions simulated : ctaid=(0,15,0) tid=(17,1,0)
GPGPU-Sim PTX: 9400000 instructions simulated : ctaid=(0,10,0) tid=(10,2,0)
GPGPU-Sim PTX: 9500000 instructions simulated : ctaid=(0,0,0) tid=(5,2,0)
GPGPU-Sim uArch: cycles simulated: 20500  inst.: 8599840 (ipc=419.5) sim_rate=277414 (inst/sec) elapsed = 0:0:00:31 / Wed Apr 17 12:23:23 2019
GPGPU-Sim PTX: 9600000 instructions simulated : ctaid=(0,23,0) tid=(14,3,0)
GPGPU-Sim PTX: 9700000 instructions simulated : ctaid=(0,24,0) tid=(11,2,0)
GPGPU-Sim PTX: 9800000 instructions simulated : ctaid=(3,9,0) tid=(1,0,0)
GPGPU-Sim uArch: cycles simulated: 21000  inst.: 8830759 (ipc=420.5) sim_rate=275961 (inst/sec) elapsed = 0:0:00:32 / Wed Apr 17 12:23:24 2019
GPGPU-Sim PTX: 9900000 instructions simulated : ctaid=(3,2,0) tid=(16,1,0)
GPGPU-Sim PTX: 10000000 instructions simulated : ctaid=(1,1,0) tid=(27,2,0)
GPGPU-Sim PTX: 10100000 instructions simulated : ctaid=(2,17,0) tid=(5,1,0)
GPGPU-Sim PTX: 10200000 instructions simulated : ctaid=(1,5,0) tid=(17,0,0)
GPGPU-Sim PTX: 10300000 instructions simulated : ctaid=(0,19,0) tid=(4,3,0)
GPGPU-Sim PTX: 10400000 instructions simulated : ctaid=(0,12,0) tid=(22,0,0)
GPGPU-Sim uArch: cycles simulated: 22000  inst.: 9376965 (ipc=426.2) sim_rate=284150 (inst/sec) elapsed = 0:0:00:33 / Wed Apr 17 12:23:25 2019
GPGPU-Sim PTX: 10500000 instructions simulated : ctaid=(1,22,0) tid=(29,0,0)
GPGPU-Sim PTX: 10600000 instructions simulated : ctaid=(2,12,0) tid=(29,2,0)
GPGPU-Sim PTX: 10700000 instructions simulated : ctaid=(3,7,0) tid=(16,1,0)
GPGPU-Sim uArch: cycles simulated: 22500  inst.: 9622389 (ipc=427.7) sim_rate=283011 (inst/sec) elapsed = 0:0:00:34 / Wed Apr 17 12:23:26 2019
GPGPU-Sim PTX: 10800000 instructions simulated : ctaid=(1,14,0) tid=(18,1,0)
GPGPU-Sim PTX: 10900000 instructions simulated : ctaid=(3,11,0) tid=(0,1,0)
GPGPU-Sim PTX: 11000000 instructions simulated : ctaid=(3,17,0) tid=(27,3,0)
GPGPU-Sim uArch: cycles simulated: 23000  inst.: 9889960 (ipc=430.0) sim_rate=282570 (inst/sec) elapsed = 0:0:00:35 / Wed Apr 17 12:23:27 2019
GPGPU-Sim PTX: 11100000 instructions simulated : ctaid=(3,6,0) tid=(2,1,0)
GPGPU-Sim PTX: 11200000 instructions simulated : ctaid=(2,16,0) tid=(27,2,0)
GPGPU-Sim PTX: 11300000 instructions simulated : ctaid=(1,20,0) tid=(0,2,0)
GPGPU-Sim uArch: cycles simulated: 23500  inst.: 10160709 (ipc=432.4) sim_rate=282241 (inst/sec) elapsed = 0:0:00:36 / Wed Apr 17 12:23:28 2019
GPGPU-Sim PTX: 11400000 instructions simulated : ctaid=(1,21,0) tid=(17,1,0)
GPGPU-Sim PTX: 11500000 instructions simulated : ctaid=(1,22,0) tid=(29,0,0)
GPGPU-Sim PTX: 11600000 instructions simulated : ctaid=(0,14,0) tid=(31,0,0)
GPGPU-Sim PTX: 11700000 instructions simulated : ctaid=(2,16,0) tid=(31,0,0)
GPGPU-Sim PTX: 11800000 instructions simulated : ctaid=(1,16,0) tid=(26,1,0)
GPGPU-Sim PTX: 11900000 instructions simulated : ctaid=(2,8,0) tid=(26,1,0)
GPGPU-Sim uArch: cycles simulated: 24500  inst.: 10652935 (ipc=434.8) sim_rate=287917 (inst/sec) elapsed = 0:0:00:37 / Wed Apr 17 12:23:29 2019
GPGPU-Sim PTX: 12000000 instructions simulated : ctaid=(2,16,0) tid=(6,1,0)
GPGPU-Sim PTX: 12100000 instructions simulated : ctaid=(2,22,0) tid=(5,2,0)
GPGPU-Sim PTX: 12200000 instructions simulated : ctaid=(2,5,0) tid=(12,1,0)
GPGPU-Sim uArch: cycles simulated: 25000  inst.: 10926421 (ipc=437.1) sim_rate=287537 (inst/sec) elapsed = 0:0:00:38 / Wed Apr 17 12:23:30 2019
GPGPU-Sim PTX: 12300000 instructions simulated : ctaid=(3,7,0) tid=(27,2,0)
GPGPU-Sim PTX: 12400000 instructions simulated : ctaid=(2,6,0) tid=(7,1,0)
GPGPU-Sim PTX: 12500000 instructions simulated : ctaid=(0,1,0) tid=(25,3,0)
GPGPU-Sim uArch: cycles simulated: 25500  inst.: 11181557 (ipc=438.5) sim_rate=286706 (inst/sec) elapsed = 0:0:00:39 / Wed Apr 17 12:23:31 2019
GPGPU-Sim PTX: 12600000 instructions simulated : ctaid=(0,11,0) tid=(7,3,0)
GPGPU-Sim PTX: 12700000 instructions simulated : ctaid=(1,2,0) tid=(26,2,0)
GPGPU-Sim uArch: cycles simulated: 26000  inst.: 11408488 (ipc=438.8) sim_rate=285212 (inst/sec) elapsed = 0:0:00:40 / Wed Apr 17 12:23:32 2019
GPGPU-Sim PTX: 12800000 instructions simulated : ctaid=(2,2,0) tid=(18,0,0)
GPGPU-Sim PTX: 12900000 instructions simulated : ctaid=(2,18,0) tid=(8,0,0)
GPGPU-Sim PTX: 13000000 instructions simulated : ctaid=(1,18,0) tid=(11,2,0)
GPGPU-Sim PTX: 13100000 instructions simulated : ctaid=(0,14,0) tid=(20,2,0)
GPGPU-Sim PTX: 13200000 instructions simulated : ctaid=(1,7,0) tid=(23,1,0)
GPGPU-Sim PTX: 13300000 instructions simulated : ctaid=(0,2,0) tid=(21,0,0)
GPGPU-Sim uArch: cycles simulated: 27000  inst.: 11945114 (ipc=442.4) sim_rate=291344 (inst/sec) elapsed = 0:0:00:41 / Wed Apr 17 12:23:33 2019
GPGPU-Sim PTX: 13400000 instructions simulated : ctaid=(3,24,0) tid=(3,3,0)
GPGPU-Sim PTX: 13500000 instructions simulated : ctaid=(2,5,0) tid=(7,3,0)
GPGPU-Sim PTX: 13600000 instructions simulated : ctaid=(2,17,0) tid=(13,0,0)
GPGPU-Sim uArch: cycles simulated: 27500  inst.: 12174393 (ipc=442.7) sim_rate=289866 (inst/sec) elapsed = 0:0:00:42 / Wed Apr 17 12:23:34 2019
GPGPU-Sim PTX: 13700000 instructions simulated : ctaid=(1,5,0) tid=(24,1,0)
GPGPU-Sim PTX: 13800000 instructions simulated : ctaid=(0,13,0) tid=(23,0,0)
GPGPU-Sim PTX: 13900000 instructions simulated : ctaid=(1,14,0) tid=(8,2,0)
GPGPU-Sim uArch: cycles simulated: 28000  inst.: 12435700 (ipc=444.1) sim_rate=289202 (inst/sec) elapsed = 0:0:00:43 / Wed Apr 17 12:23:35 2019
GPGPU-Sim PTX: 14000000 instructions simulated : ctaid=(0,2,0) tid=(11,1,0)
GPGPU-Sim PTX: 14100000 instructions simulated : ctaid=(1,5,0) tid=(8,0,0)
GPGPU-Sim PTX: 14200000 instructions simulated : ctaid=(2,8,0) tid=(15,2,0)
GPGPU-Sim uArch: cycles simulated: 28500  inst.: 12695096 (ipc=445.4) sim_rate=288524 (inst/sec) elapsed = 0:0:00:44 / Wed Apr 17 12:23:36 2019
GPGPU-Sim PTX: 14300000 instructions simulated : ctaid=(0,11,0) tid=(14,0,0)
GPGPU-Sim PTX: 14400000 instructions simulated : ctaid=(2,19,0) tid=(20,1,0)
GPGPU-Sim uArch: cycles simulated: 29000  inst.: 12955504 (ipc=446.7) sim_rate=287900 (inst/sec) elapsed = 0:0:00:45 / Wed Apr 17 12:23:37 2019
GPGPU-Sim PTX: 14500000 instructions simulated : ctaid=(0,9,0) tid=(15,2,0)
GPGPU-Sim PTX: 14600000 instructions simulated : ctaid=(0,9,0) tid=(26,0,0)
GPGPU-Sim PTX: 14700000 instructions simulated : ctaid=(1,17,0) tid=(10,2,0)
GPGPU-Sim uArch: cycles simulated: 29500  inst.: 13201466 (ipc=447.5) sim_rate=286988 (inst/sec) elapsed = 0:0:00:46 / Wed Apr 17 12:23:38 2019
GPGPU-Sim PTX: 14800000 instructions simulated : ctaid=(1,19,0) tid=(3,1,0)
GPGPU-Sim PTX: 14900000 instructions simulated : ctaid=(1,11,0) tid=(10,2,0)
GPGPU-Sim PTX: 15000000 instructions simulated : ctaid=(0,2,0) tid=(0,3,0)
GPGPU-Sim PTX: 15100000 instructions simulated : ctaid=(0,15,0) tid=(1,2,0)
GPGPU-Sim PTX: 15200000 instructions simulated : ctaid=(2,2,0) tid=(13,1,0)
GPGPU-Sim PTX: 15300000 instructions simulated : ctaid=(1,7,0) tid=(13,2,0)
GPGPU-Sim uArch: cycles simulated: 30500  inst.: 13735855 (ipc=450.4) sim_rate=292252 (inst/sec) elapsed = 0:0:00:47 / Wed Apr 17 12:23:39 2019
GPGPU-Sim PTX: 15400000 instructions simulated : ctaid=(2,24,0) tid=(24,0,0)
GPGPU-Sim PTX: 15500000 instructions simulated : ctaid=(0,9,0) tid=(24,2,0)
GPGPU-Sim PTX: 15600000 instructions simulated : ctaid=(3,10,0) tid=(28,2,0)
GPGPU-Sim uArch: cycles simulated: 31000  inst.: 13987443 (ipc=451.2) sim_rate=291405 (inst/sec) elapsed = 0:0:00:48 / Wed Apr 17 12:23:40 2019
GPGPU-Sim PTX: 15700000 instructions simulated : ctaid=(2,11,0) tid=(6,0,0)
GPGPU-Sim PTX: 15800000 instructions simulated : ctaid=(3,15,0) tid=(18,0,0)
GPGPU-Sim PTX: 15900000 instructions simulated : ctaid=(0,7,0) tid=(5,2,0)
GPGPU-Sim uArch: cycles simulated: 31500  inst.: 14241877 (ipc=452.1) sim_rate=290650 (inst/sec) elapsed = 0:0:00:49 / Wed Apr 17 12:23:41 2019
GPGPU-Sim PTX: 16000000 instructions simulated : ctaid=(2,12,0) tid=(22,3,0)
GPGPU-Sim PTX: 16100000 instructions simulated : ctaid=(0,8,0) tid=(2,3,0)
GPGPU-Sim PTX: 16200000 instructions simulated : ctaid=(2,1,0) tid=(15,2,0)
GPGPU-Sim uArch: cycles simulated: 32000  inst.: 14516272 (ipc=453.6) sim_rate=290325 (inst/sec) elapsed = 0:0:00:50 / Wed Apr 17 12:23:42 2019
GPGPU-Sim PTX: 16300000 instructions simulated : ctaid=(2,7,0) tid=(0,1,0)
GPGPU-Sim PTX: 16400000 instructions simulated : ctaid=(1,4,0) tid=(29,3,0)
GPGPU-Sim PTX: 16500000 instructions simulated : ctaid=(2,15,0) tid=(24,1,0)
GPGPU-Sim PTX: 16600000 instructions simulated : ctaid=(0,7,0) tid=(7,3,0)
GPGPU-Sim PTX: 16700000 instructions simulated : ctaid=(1,18,0) tid=(24,0,0)
GPGPU-Sim PTX: 16800000 instructions simulated : ctaid=(0,3,0) tid=(21,2,0)
GPGPU-Sim uArch: cycles simulated: 33000  inst.: 15020069 (ipc=455.2) sim_rate=294511 (inst/sec) elapsed = 0:0:00:51 / Wed Apr 17 12:23:43 2019
GPGPU-Sim PTX: 16900000 instructions simulated : ctaid=(0,18,0) tid=(12,1,0)
GPGPU-Sim PTX: 17000000 instructions simulated : ctaid=(3,6,0) tid=(1,3,0)
GPGPU-Sim PTX: 17100000 instructions simulated : ctaid=(1,6,0) tid=(27,3,0)
GPGPU-Sim uArch: cycles simulated: 33500  inst.: 15301381 (ipc=456.8) sim_rate=294257 (inst/sec) elapsed = 0:0:00:52 / Wed Apr 17 12:23:44 2019
GPGPU-Sim PTX: 17200000 instructions simulated : ctaid=(2,12,0) tid=(14,0,0)
GPGPU-Sim PTX: 17300000 instructions simulated : ctaid=(2,11,0) tid=(15,1,0)
GPGPU-Sim uArch: cycles simulated: 34000  inst.: 15532074 (ipc=456.8) sim_rate=293058 (inst/sec) elapsed = 0:0:00:53 / Wed Apr 17 12:23:45 2019
GPGPU-Sim PTX: 17400000 instructions simulated : ctaid=(0,11,0) tid=(12,1,0)
GPGPU-Sim PTX: 17500000 instructions simulated : ctaid=(0,24,0) tid=(10,1,0)
GPGPU-Sim PTX: 17600000 instructions simulated : ctaid=(1,10,0) tid=(4,3,0)
GPGPU-Sim PTX: 17700000 instructions simulated : ctaid=(1,22,0) tid=(4,2,0)
GPGPU-Sim uArch: cycles simulated: 34500  inst.: 15816574 (ipc=458.5) sim_rate=292899 (inst/sec) elapsed = 0:0:00:54 / Wed Apr 17 12:23:46 2019
GPGPU-Sim PTX: 17800000 instructions simulated : ctaid=(2,9,0) tid=(5,3,0)
GPGPU-Sim PTX: 17900000 instructions simulated : ctaid=(3,7,0) tid=(2,1,0)
GPGPU-Sim PTX: 18000000 instructions simulated : ctaid=(0,1,0) tid=(0,3,0)
GPGPU-Sim PTX: 18100000 instructions simulated : ctaid=(1,7,0) tid=(0,2,0)
GPGPU-Sim PTX: 18200000 instructions simulated : ctaid=(2,14,0) tid=(12,0,0)
GPGPU-Sim uArch: cycles simulated: 35500  inst.: 16291872 (ipc=458.9) sim_rate=296215 (inst/sec) elapsed = 0:0:00:55 / Wed Apr 17 12:23:47 2019
GPGPU-Sim PTX: 18300000 instructions simulated : ctaid=(2,3,0) tid=(9,1,0)
GPGPU-Sim PTX: 18400000 instructions simulated : ctaid=(2,5,0) tid=(8,3,0)
GPGPU-Sim PTX: 18500000 instructions simulated : ctaid=(3,23,0) tid=(1,2,0)
GPGPU-Sim uArch: cycles simulated: 36000  inst.: 16568388 (ipc=460.2) sim_rate=295864 (inst/sec) elapsed = 0:0:00:56 / Wed Apr 17 12:23:48 2019
GPGPU-Sim PTX: 18600000 instructions simulated : ctaid=(0,13,0) tid=(18,3,0)
GPGPU-Sim PTX: 18700000 instructions simulated : ctaid=(0,4,0) tid=(7,0,0)
GPGPU-Sim PTX: 18800000 instructions simulated : ctaid=(2,6,0) tid=(9,0,0)
GPGPU-Sim uArch: cycles simulated: 36500  inst.: 16836888 (ipc=461.3) sim_rate=295384 (inst/sec) elapsed = 0:0:00:57 / Wed Apr 17 12:23:49 2019
GPGPU-Sim PTX: 18900000 instructions simulated : ctaid=(0,10,0) tid=(26,0,0)
GPGPU-Sim PTX: 19000000 instructions simulated : ctaid=(0,2,0) tid=(3,0,0)
GPGPU-Sim PTX: 19100000 instructions simulated : ctaid=(0,2,0) tid=(12,3,0)
GPGPU-Sim uArch: cycles simulated: 37000  inst.: 17084002 (ipc=461.7) sim_rate=294551 (inst/sec) elapsed = 0:0:00:58 / Wed Apr 17 12:23:50 2019
GPGPU-Sim PTX: 19200000 instructions simulated : ctaid=(2,13,0) tid=(30,1,0)
GPGPU-Sim PTX: 19300000 instructions simulated : ctaid=(0,14,0) tid=(25,2,0)
GPGPU-Sim PTX: 19400000 instructions simulated : ctaid=(2,5,0) tid=(16,0,0)
GPGPU-Sim uArch: cycles simulated: 37500  inst.: 17354950 (ipc=462.8) sim_rate=294151 (inst/sec) elapsed = 0:0:00:59 / Wed Apr 17 12:23:51 2019
GPGPU-Sim PTX: 19500000 instructions simulated : ctaid=(1,18,0) tid=(13,2,0)
GPGPU-Sim PTX: 19600000 instructions simulated : ctaid=(3,11,0) tid=(13,3,0)
GPGPU-Sim PTX: 19700000 instructions simulated : ctaid=(1,12,0) tid=(2,0,0)
GPGPU-Sim PTX: 19800000 instructions simulated : ctaid=(1,23,0) tid=(27,1,0)
GPGPU-Sim PTX: 19900000 instructions simulated : ctaid=(1,20,0) tid=(15,0,0)
GPGPU-Sim PTX: 20000000 instructions simulated : ctaid=(2,9,0) tid=(14,0,0)
GPGPU-Sim uArch: cycles simulated: 38500  inst.: 17891455 (ipc=464.7) sim_rate=298190 (inst/sec) elapsed = 0:0:01:00 / Wed Apr 17 12:23:52 2019
GPGPU-Sim PTX: 20100000 instructions simulated : ctaid=(0,1,0) tid=(24,0,0)
GPGPU-Sim PTX: 20200000 instructions simulated : ctaid=(2,0,0) tid=(25,1,0)
GPGPU-Sim PTX: 20300000 instructions simulated : ctaid=(1,2,0) tid=(13,0,0)
GPGPU-Sim uArch: cycles simulated: 39000  inst.: 18142642 (ipc=465.2) sim_rate=297420 (inst/sec) elapsed = 0:0:01:01 / Wed Apr 17 12:23:53 2019
GPGPU-Sim PTX: 20400000 instructions simulated : ctaid=(3,16,0) tid=(0,1,0)
GPGPU-Sim PTX: 20500000 instructions simulated : ctaid=(0,0,0) tid=(9,1,0)
GPGPU-Sim PTX: 20600000 instructions simulated : ctaid=(0,2,0) tid=(2,2,0)
GPGPU-Sim uArch: cycles simulated: 39500  inst.: 18409623 (ipc=466.1) sim_rate=296929 (inst/sec) elapsed = 0:0:01:02 / Wed Apr 17 12:23:54 2019
GPGPU-Sim PTX: 20700000 instructions simulated : ctaid=(1,6,0) tid=(13,0,0)
GPGPU-Sim PTX: 20800000 instructions simulated : ctaid=(0,5,0) tid=(28,3,0)
GPGPU-Sim PTX: 20900000 instructions simulated : ctaid=(1,5,0) tid=(16,1,0)
GPGPU-Sim uArch: cycles simulated: 40000  inst.: 18687218 (ipc=467.2) sim_rate=296622 (inst/sec) elapsed = 0:0:01:03 / Wed Apr 17 12:23:55 2019
GPGPU-Sim PTX: 21000000 instructions simulated : ctaid=(0,20,0) tid=(29,0,0)
GPGPU-Sim PTX: 21100000 instructions simulated : ctaid=(2,18,0) tid=(21,1,0)
GPGPU-Sim PTX: 21200000 instructions simulated : ctaid=(1,9,0) tid=(11,2,0)
GPGPU-Sim uArch: cycles simulated: 40500  inst.: 18936404 (ipc=467.6) sim_rate=295881 (inst/sec) elapsed = 0:0:01:04 / Wed Apr 17 12:23:56 2019
GPGPU-Sim PTX: 21300000 instructions simulated : ctaid=(2,16,0) tid=(12,3,0)
GPGPU-Sim PTX: 21400000 instructions simulated : ctaid=(0,18,0) tid=(0,3,0)
GPGPU-Sim PTX: 21500000 instructions simulated : ctaid=(0,14,0) tid=(9,1,0)
GPGPU-Sim PTX: 21600000 instructions simulated : ctaid=(1,18,0) tid=(1,2,0)
GPGPU-Sim PTX: 21700000 instructions simulated : ctaid=(0,6,0) tid=(9,1,0)
GPGPU-Sim PTX: 21800000 instructions simulated : ctaid=(1,20,0) tid=(30,1,0)
GPGPU-Sim uArch: cycles simulated: 41500  inst.: 19471338 (ipc=469.2) sim_rate=299559 (inst/sec) elapsed = 0:0:01:05 / Wed Apr 17 12:23:57 2019
GPGPU-Sim PTX: 21900000 instructions simulated : ctaid=(0,23,0) tid=(2,2,0)
GPGPU-Sim PTX: 22000000 instructions simulated : ctaid=(1,8,0) tid=(11,0,0)
GPGPU-Sim PTX: 22100000 instructions simulated : ctaid=(0,17,0) tid=(8,0,0)
GPGPU-Sim uArch: cycles simulated: 42000  inst.: 19733407 (ipc=469.8) sim_rate=298991 (inst/sec) elapsed = 0:0:01:06 / Wed Apr 17 12:23:58 2019
GPGPU-Sim PTX: 22200000 instructions simulated : ctaid=(0,4,0) tid=(27,3,0)
GPGPU-Sim PTX: 22300000 instructions simulated : ctaid=(0,17,0) tid=(20,1,0)
GPGPU-Sim PTX: 22400000 instructions simulated : ctaid=(0,20,0) tid=(10,3,0)
GPGPU-Sim uArch: cycles simulated: 42500  inst.: 20003464 (ipc=470.7) sim_rate=298559 (inst/sec) elapsed = 0:0:01:07 / Wed Apr 17 12:23:59 2019
GPGPU-Sim PTX: 22500000 instructions simulated : ctaid=(1,22,0) tid=(19,3,0)
GPGPU-Sim PTX: 22600000 instructions simulated : ctaid=(2,15,0) tid=(12,3,0)
GPGPU-Sim PTX: 22700000 instructions simulated : ctaid=(2,6,0) tid=(6,3,0)
GPGPU-Sim uArch: cycles simulated: 43000  inst.: 20265568 (ipc=471.3) sim_rate=298023 (inst/sec) elapsed = 0:0:01:08 / Wed Apr 17 12:24:00 2019
GPGPU-Sim PTX: 22800000 instructions simulated : ctaid=(2,4,0) tid=(24,3,0)
GPGPU-Sim PTX: 22900000 instructions simulated : ctaid=(3,12,0) tid=(3,1,0)
GPGPU-Sim PTX: 23000000 instructions simulated : ctaid=(0,2,0) tid=(13,0,0)
GPGPU-Sim uArch: cycles simulated: 43500  inst.: 20518092 (ipc=471.7) sim_rate=297363 (inst/sec) elapsed = 0:0:01:09 / Wed Apr 17 12:24:01 2019
GPGPU-Sim PTX: 23100000 instructions simulated : ctaid=(2,14,0) tid=(30,3,0)
GPGPU-Sim PTX: 23200000 instructions simulated : ctaid=(1,24,0) tid=(24,0,0)
GPGPU-Sim PTX: 23300000 instructions simulated : ctaid=(0,3,0) tid=(22,1,0)
GPGPU-Sim PTX: 23400000 instructions simulated : ctaid=(0,3,0) tid=(29,2,0)
GPGPU-Sim PTX: 23500000 instructions simulated : ctaid=(0,8,0) tid=(21,1,0)
GPGPU-Sim PTX: 23600000 instructions simulated : ctaid=(0,15,0) tid=(22,1,0)
GPGPU-Sim uArch: cycles simulated: 44500  inst.: 21049568 (ipc=473.0) sim_rate=300708 (inst/sec) elapsed = 0:0:01:10 / Wed Apr 17 12:24:02 2019
GPGPU-Sim PTX: 23700000 instructions simulated : ctaid=(2,7,0) tid=(10,2,0)
GPGPU-Sim PTX: 23800000 instructions simulated : ctaid=(1,2,0) tid=(25,0,0)
GPGPU-Sim PTX: 23900000 instructions simulated : ctaid=(3,14,0) tid=(14,1,0)
GPGPU-Sim uArch: cycles simulated: 45000  inst.: 21316146 (ipc=473.7) sim_rate=300227 (inst/sec) elapsed = 0:0:01:11 / Wed Apr 17 12:24:03 2019
GPGPU-Sim PTX: 24000000 instructions simulated : ctaid=(1,12,0) tid=(23,2,0)
GPGPU-Sim PTX: 24100000 instructions simulated : ctaid=(2,15,0) tid=(0,1,0)
GPGPU-Sim PTX: 24200000 instructions simulated : ctaid=(0,15,0) tid=(24,1,0)
GPGPU-Sim uArch: cycles simulated: 45500  inst.: 21583364 (ipc=474.4) sim_rate=299768 (inst/sec) elapsed = 0:0:01:12 / Wed Apr 17 12:24:04 2019
GPGPU-Sim PTX: 24300000 instructions simulated : ctaid=(0,16,0) tid=(9,1,0)
GPGPU-Sim PTX: 24400000 instructions simulated : ctaid=(2,4,0) tid=(31,0,0)
GPGPU-Sim PTX: 24500000 instructions simulated : ctaid=(2,12,0) tid=(12,0,0)
GPGPU-Sim uArch: cycles simulated: 46000  inst.: 21853889 (ipc=475.1) sim_rate=299368 (inst/sec) elapsed = 0:0:01:13 / Wed Apr 17 12:24:05 2019
GPGPU-Sim PTX: 24600000 instructions simulated : ctaid=(0,14,0) tid=(22,0,0)
GPGPU-Sim PTX: 24700000 instructions simulated : ctaid=(0,22,0) tid=(21,1,0)
GPGPU-Sim PTX: 24800000 instructions simulated : ctaid=(0,1,0) tid=(19,2,0)
GPGPU-Sim uArch: cycles simulated: 46500  inst.: 22124047 (ipc=475.8) sim_rate=298973 (inst/sec) elapsed = 0:0:01:14 / Wed Apr 17 12:24:06 2019
GPGPU-Sim PTX: 24900000 instructions simulated : ctaid=(1,13,0) tid=(19,2,0)
GPGPU-Sim PTX: 25000000 instructions simulated : ctaid=(0,5,0) tid=(19,0,0)
GPGPU-Sim uArch: cycles simulated: 47000  inst.: 22364013 (ipc=475.8) sim_rate=298186 (inst/sec) elapsed = 0:0:01:15 / Wed Apr 17 12:24:07 2019
GPGPU-Sim PTX: 25100000 instructions simulated : ctaid=(1,7,0) tid=(12,3,0)
GPGPU-Sim PTX: 25200000 instructions simulated : ctaid=(1,12,0) tid=(28,1,0)
GPGPU-Sim PTX: 25300000 instructions simulated : ctaid=(1,11,0) tid=(15,2,0)
GPGPU-Sim PTX: 25400000 instructions simulated : ctaid=(0,12,0) tid=(31,1,0)
GPGPU-Sim PTX: 25500000 instructions simulated : ctaid=(1,7,0) tid=(0,0,0)
GPGPU-Sim PTX: 25600000 instructions simulated : ctaid=(1,22,0) tid=(25,2,0)
GPGPU-Sim uArch: cycles simulated: 48000  inst.: 22894332 (ipc=477.0) sim_rate=301241 (inst/sec) elapsed = 0:0:01:16 / Wed Apr 17 12:24:08 2019
GPGPU-Sim PTX: 25700000 instructions simulated : ctaid=(2,9,0) tid=(22,1,0)
GPGPU-Sim PTX: 25800000 instructions simulated : ctaid=(2,10,0) tid=(19,1,0)
GPGPU-Sim PTX: 25900000 instructions simulated : ctaid=(0,15,0) tid=(26,3,0)
GPGPU-Sim uArch: cycles simulated: 48500  inst.: 23140251 (ipc=477.1) sim_rate=300522 (inst/sec) elapsed = 0:0:01:17 / Wed Apr 17 12:24:09 2019
GPGPU-Sim PTX: 26000000 instructions simulated : ctaid=(2,1,0) tid=(10,1,0)
GPGPU-Sim PTX: 26100000 instructions simulated : ctaid=(0,0,0) tid=(31,1,0)
GPGPU-Sim PTX: 26200000 instructions simulated : ctaid=(2,7,0) tid=(4,2,0)
GPGPU-Sim uArch: cycles simulated: 49000  inst.: 23418499 (ipc=477.9) sim_rate=300237 (inst/sec) elapsed = 0:0:01:18 / Wed Apr 17 12:24:10 2019
GPGPU-Sim PTX: 26300000 instructions simulated : ctaid=(1,12,0) tid=(29,3,0)
GPGPU-Sim PTX: 26400000 instructions simulated : ctaid=(1,3,0) tid=(28,0,0)
GPGPU-Sim PTX: 26500000 instructions simulated : ctaid=(1,11,0) tid=(16,0,0)
GPGPU-Sim uArch: cycles simulated: 49500  inst.: 23658052 (ipc=477.9) sim_rate=299469 (inst/sec) elapsed = 0:0:01:19 / Wed Apr 17 12:24:11 2019
GPGPU-Sim PTX: 26600000 instructions simulated : ctaid=(3,12,0) tid=(3,1,0)
GPGPU-Sim PTX: 26700000 instructions simulated : ctaid=(1,18,0) tid=(3,3,0)
GPGPU-Sim PTX: 26800000 instructions simulated : ctaid=(3,1,0) tid=(1,2,0)
GPGPU-Sim PTX: 26900000 instructions simulated : ctaid=(0,14,0) tid=(23,2,0)
GPGPU-Sim PTX: 27000000 instructions simulated : ctaid=(3,1,0) tid=(23,0,0)
GPGPU-Sim PTX: 27100000 instructions simulated : ctaid=(0,9,0) tid=(25,0,0)
GPGPU-Sim uArch: cycles simulated: 50500  inst.: 24193819 (ipc=479.1) sim_rate=302422 (inst/sec) elapsed = 0:0:01:20 / Wed Apr 17 12:24:12 2019
GPGPU-Sim PTX: 27200000 instructions simulated : ctaid=(0,5,0) tid=(6,1,0)
GPGPU-Sim PTX: 27300000 instructions simulated : ctaid=(2,10,0) tid=(22,3,0)
GPGPU-Sim PTX: 27400000 instructions simulated : ctaid=(3,1,0) tid=(18,1,0)
GPGPU-Sim uArch: cycles simulated: 51000  inst.: 24431135 (ipc=479.0) sim_rate=301618 (inst/sec) elapsed = 0:0:01:21 / Wed Apr 17 12:24:13 2019
GPGPU-Sim PTX: 27500000 instructions simulated : ctaid=(1,23,0) tid=(28,3,0)
GPGPU-Sim PTX: 27600000 instructions simulated : ctaid=(0,17,0) tid=(9,2,0)
GPGPU-Sim PTX: 27700000 instructions simulated : ctaid=(1,14,0) tid=(11,1,0)
GPGPU-Sim uArch: cycles simulated: 51500  inst.: 24691428 (ipc=479.4) sim_rate=301114 (inst/sec) elapsed = 0:0:01:22 / Wed Apr 17 12:24:14 2019
GPGPU-Sim PTX: 27800000 instructions simulated : ctaid=(3,19,0) tid=(19,3,0)
GPGPU-Sim PTX: 27900000 instructions simulated : ctaid=(1,12,0) tid=(21,0,0)
GPGPU-Sim PTX: 28000000 instructions simulated : ctaid=(0,8,0) tid=(29,3,0)
GPGPU-Sim uArch: cycles simulated: 52000  inst.: 24960406 (ipc=480.0) sim_rate=300727 (inst/sec) elapsed = 0:0:01:23 / Wed Apr 17 12:24:15 2019
GPGPU-Sim PTX: 28100000 instructions simulated : ctaid=(1,7,0) tid=(22,3,0)
GPGPU-Sim PTX: 28200000 instructions simulated : ctaid=(0,7,0) tid=(4,1,0)
GPGPU-Sim PTX: 28300000 instructions simulated : ctaid=(0,9,0) tid=(26,1,0)
GPGPU-Sim PTX: 28400000 instructions simulated : ctaid=(2,6,0) tid=(11,0,0)
GPGPU-Sim PTX: 28500000 instructions simulated : ctaid=(3,7,0) tid=(3,3,0)
GPGPU-Sim uArch: cycles simulated: 53000  inst.: 25476348 (ipc=480.7) sim_rate=303289 (inst/sec) elapsed = 0:0:01:24 / Wed Apr 17 12:24:16 2019
GPGPU-Sim PTX: 28600000 instructions simulated : ctaid=(1,3,0) tid=(19,0,0)
GPGPU-Sim PTX: 28700000 instructions simulated : ctaid=(1,3,0) tid=(9,0,0)
GPGPU-Sim PTX: 28800000 instructions simulated : ctaid=(0,10,0) tid=(20,3,0)
GPGPU-Sim uArch: cycles simulated: 53500  inst.: 25739399 (ipc=481.1) sim_rate=302816 (inst/sec) elapsed = 0:0:01:25 / Wed Apr 17 12:24:17 2019
GPGPU-Sim PTX: 28900000 instructions simulated : ctaid=(2,17,0) tid=(21,2,0)
GPGPU-Sim PTX: 29000000 instructions simulated : ctaid=(2,21,0) tid=(27,0,0)
GPGPU-Sim PTX: 29100000 instructions simulated : ctaid=(0,21,0) tid=(30,0,0)
GPGPU-Sim uArch: cycles simulated: 54000  inst.: 26002419 (ipc=481.5) sim_rate=302353 (inst/sec) elapsed = 0:0:01:26 / Wed Apr 17 12:24:18 2019
GPGPU-Sim PTX: 29200000 instructions simulated : ctaid=(1,22,0) tid=(30,3,0)
GPGPU-Sim PTX: 29300000 instructions simulated : ctaid=(2,12,0) tid=(2,0,0)
GPGPU-Sim PTX: 29400000 instructions simulated : ctaid=(2,12,0) tid=(30,0,0)
GPGPU-Sim uArch: cycles simulated: 54500  inst.: 26274335 (ipc=482.1) sim_rate=302003 (inst/sec) elapsed = 0:0:01:27 / Wed Apr 17 12:24:19 2019
GPGPU-Sim PTX: 29500000 instructions simulated : ctaid=(0,8,0) tid=(19,3,0)
GPGPU-Sim PTX: 29600000 instructions simulated : ctaid=(0,19,0) tid=(23,1,0)
GPGPU-Sim PTX: 29700000 instructions simulated : ctaid=(2,0,0) tid=(13,0,0)
GPGPU-Sim PTX: 29800000 instructions simulated : ctaid=(1,18,0) tid=(20,3,0)
GPGPU-Sim PTX: 29900000 instructions simulated : ctaid=(2,18,0) tid=(13,1,0)
GPGPU-Sim PTX: 30000000 instructions simulated : ctaid=(2,22,0) tid=(5,1,0)
GPGPU-Sim uArch: cycles simulated: 55500  inst.: 26812171 (ipc=483.1) sim_rate=304683 (inst/sec) elapsed = 0:0:01:28 / Wed Apr 17 12:24:20 2019
GPGPU-Sim PTX: 30100000 instructions simulated : ctaid=(0,16,0) tid=(2,1,0)
GPGPU-Sim PTX: 30200000 instructions simulated : ctaid=(0,17,0) tid=(22,0,0)
GPGPU-Sim PTX: 30300000 instructions simulated : ctaid=(0,19,0) tid=(18,0,0)
GPGPU-Sim uArch: cycles simulated: 56000  inst.: 27069794 (ipc=483.4) sim_rate=304154 (inst/sec) elapsed = 0:0:01:29 / Wed Apr 17 12:24:21 2019
GPGPU-Sim PTX: 30400000 instructions simulated : ctaid=(3,24,0) tid=(2,0,0)
GPGPU-Sim PTX: 30500000 instructions simulated : ctaid=(0,4,0) tid=(15,2,0)
GPGPU-Sim PTX: 30600000 instructions simulated : ctaid=(3,2,0) tid=(20,3,0)
GPGPU-Sim uArch: cycles simulated: 56500  inst.: 27328892 (ipc=483.7) sim_rate=303654 (inst/sec) elapsed = 0:0:01:30 / Wed Apr 17 12:24:22 2019
GPGPU-Sim PTX: 30700000 instructions simulated : ctaid=(0,2,0) tid=(23,3,0)
GPGPU-Sim PTX: 30800000 instructions simulated : ctaid=(2,15,0) tid=(30,2,0)
GPGPU-Sim PTX: 30900000 instructions simulated : ctaid=(0,12,0) tid=(12,1,0)
GPGPU-Sim PTX: 31000000 instructions simulated : ctaid=(0,8,0) tid=(14,0,0)
GPGPU-Sim PTX: 31100000 instructions simulated : ctaid=(0,22,0) tid=(10,3,0)
GPGPU-Sim PTX: 31200000 instructions simulated : ctaid=(0,8,0) tid=(24,2,0)
GPGPU-Sim uArch: cycles simulated: 57500  inst.: 27865734 (ipc=484.6) sim_rate=306216 (inst/sec) elapsed = 0:0:01:31 / Wed Apr 17 12:24:23 2019
GPGPU-Sim PTX: 31300000 instructions simulated : ctaid=(2,5,0) tid=(16,1,0)
GPGPU-Sim PTX: 31400000 instructions simulated : ctaid=(0,11,0) tid=(24,1,0)
GPGPU-Sim PTX: 31500000 instructions simulated : ctaid=(0,22,0) tid=(1,2,0)
GPGPU-Sim uArch: cycles simulated: 58000  inst.: 28118293 (ipc=484.8) sim_rate=305633 (inst/sec) elapsed = 0:0:01:32 / Wed Apr 17 12:24:24 2019
GPGPU-Sim PTX: 31600000 instructions simulated : ctaid=(2,3,0) tid=(5,1,0)
GPGPU-Sim PTX: 31700000 instructions simulated : ctaid=(2,8,0) tid=(22,2,0)
GPGPU-Sim PTX: 31800000 instructions simulated : ctaid=(2,16,0) tid=(10,0,0)
GPGPU-Sim uArch: cycles simulated: 58500  inst.: 28383859 (ipc=485.2) sim_rate=305202 (inst/sec) elapsed = 0:0:01:33 / Wed Apr 17 12:24:25 2019
GPGPU-Sim PTX: 31900000 instructions simulated : ctaid=(3,6,0) tid=(8,1,0)
GPGPU-Sim PTX: 32000000 instructions simulated : ctaid=(1,0,0) tid=(23,3,0)
GPGPU-Sim PTX: 32100000 instructions simulated : ctaid=(0,18,0) tid=(30,2,0)
GPGPU-Sim uArch: cycles simulated: 59000  inst.: 28650060 (ipc=485.6) sim_rate=304787 (inst/sec) elapsed = 0:0:01:34 / Wed Apr 17 12:24:26 2019
GPGPU-Sim PTX: 32200000 instructions simulated : ctaid=(2,5,0) tid=(8,3,0)
GPGPU-Sim PTX: 32300000 instructions simulated : ctaid=(0,6,0) tid=(5,3,0)
GPGPU-Sim PTX: 32400000 instructions simulated : ctaid=(0,21,0) tid=(24,1,0)
GPGPU-Sim PTX: 32500000 instructions simulated : ctaid=(2,8,0) tid=(22,2,0)
GPGPU-Sim PTX: 32600000 instructions simulated : ctaid=(0,17,0) tid=(2,3,0)
GPGPU-Sim PTX: 32700000 instructions simulated : ctaid=(1,14,0) tid=(25,2,0)
GPGPU-Sim uArch: cycles simulated: 60000  inst.: 29184953 (ipc=486.4) sim_rate=307210 (inst/sec) elapsed = 0:0:01:35 / Wed Apr 17 12:24:27 2019
GPGPU-Sim PTX: 32800000 instructions simulated : ctaid=(0,7,0) tid=(5,3,0)
GPGPU-Sim PTX: 32900000 instructions simulated : ctaid=(1,3,0) tid=(28,0,0)
GPGPU-Sim PTX: 33000000 instructions simulated : ctaid=(0,23,0) tid=(28,2,0)
GPGPU-Sim uArch: cycles simulated: 60500  inst.: 29438864 (ipc=486.6) sim_rate=306654 (inst/sec) elapsed = 0:0:01:36 / Wed Apr 17 12:24:28 2019
GPGPU-Sim PTX: 33100000 instructions simulated : ctaid=(0,23,0) tid=(5,2,0)
GPGPU-Sim PTX: 33200000 instructions simulated : ctaid=(3,8,0) tid=(1,2,0)
GPGPU-Sim PTX: 33300000 instructions simulated : ctaid=(1,21,0) tid=(4,1,0)
GPGPU-Sim uArch: cycles simulated: 61000  inst.: 29679292 (ipc=486.5) sim_rate=305972 (inst/sec) elapsed = 0:0:01:37 / Wed Apr 17 12:24:29 2019
GPGPU-Sim PTX: 33400000 instructions simulated : ctaid=(0,14,0) tid=(7,0,0)
GPGPU-Sim PTX: 33500000 instructions simulated : ctaid=(2,14,0) tid=(2,1,0)
GPGPU-Sim PTX: 33600000 instructions simulated : ctaid=(1,11,0) tid=(10,1,0)
GPGPU-Sim PTX: 33700000 instructions simulated : ctaid=(0,15,0) tid=(31,1,0)
GPGPU-Sim PTX: 33800000 instructions simulated : ctaid=(0,9,0) tid=(1,2,0)
GPGPU-Sim PTX: 33900000 instructions simulated : ctaid=(0,6,0) tid=(14,2,0)
GPGPU-Sim uArch: cycles simulated: 62000  inst.: 30210091 (ipc=487.3) sim_rate=308266 (inst/sec) elapsed = 0:0:01:38 / Wed Apr 17 12:24:30 2019
GPGPU-Sim PTX: 34000000 instructions simulated : ctaid=(2,13,0) tid=(31,2,0)
GPGPU-Sim PTX: 34100000 instructions simulated : ctaid=(3,10,0) tid=(0,0,0)
GPGPU-Sim uArch: cycles simulated: 62500  inst.: 30442995 (ipc=487.1) sim_rate=307505 (inst/sec) elapsed = 0:0:01:39 / Wed Apr 17 12:24:31 2019
GPGPU-Sim PTX: 34200000 instructions simulated : ctaid=(1,2,0) tid=(18,2,0)
GPGPU-Sim PTX: 34300000 instructions simulated : ctaid=(2,7,0) tid=(16,3,0)
GPGPU-Sim PTX: 34400000 instructions simulated : ctaid=(2,10,0) tid=(30,1,0)
GPGPU-Sim uArch: cycles simulated: 63000  inst.: 30708365 (ipc=487.4) sim_rate=307083 (inst/sec) elapsed = 0:0:01:40 / Wed Apr 17 12:24:32 2019
GPGPU-Sim PTX: 34500000 instructions simulated : ctaid=(3,21,0) tid=(5,3,0)
GPGPU-Sim PTX: 34600000 instructions simulated : ctaid=(3,16,0) tid=(26,3,0)
GPGPU-Sim PTX: 34700000 instructions simulated : ctaid=(0,1,0) tid=(3,0,0)
GPGPU-Sim PTX: 34800000 instructions simulated : ctaid=(3,14,0) tid=(21,0,0)
GPGPU-Sim PTX: 34900000 instructions simulated : ctaid=(1,7,0) tid=(13,2,0)
GPGPU-Sim PTX: 35000000 instructions simulated : ctaid=(0,2,0) tid=(13,2,0)
GPGPU-Sim uArch: cycles simulated: 64000  inst.: 31225170 (ipc=487.9) sim_rate=309160 (inst/sec) elapsed = 0:0:01:41 / Wed Apr 17 12:24:33 2019
GPGPU-Sim PTX: 35100000 instructions simulated : ctaid=(2,19,0) tid=(20,1,0)
GPGPU-Sim PTX: 35200000 instructions simulated : ctaid=(1,12,0) tid=(12,2,0)
GPGPU-Sim PTX: 35300000 instructions simulated : ctaid=(2,1,0) tid=(15,1,0)
GPGPU-Sim uArch: cycles simulated: 64500  inst.: 31494543 (ipc=488.3) sim_rate=308770 (inst/sec) elapsed = 0:0:01:42 / Wed Apr 17 12:24:34 2019
GPGPU-Sim PTX: 35400000 instructions simulated : ctaid=(2,6,0) tid=(22,2,0)
GPGPU-Sim PTX: 35500000 instructions simulated : ctaid=(2,13,0) tid=(1,2,0)
GPGPU-Sim PTX: 35600000 instructions simulated : ctaid=(1,0,0) tid=(8,0,0)
GPGPU-Sim uArch: cycles simulated: 65000  inst.: 31728545 (ipc=488.1) sim_rate=308044 (inst/sec) elapsed = 0:0:01:43 / Wed Apr 17 12:24:35 2019
GPGPU-Sim PTX: 35700000 instructions simulated : ctaid=(0,24,0) tid=(1,3,0)
GPGPU-Sim PTX: 35800000 instructions simulated : ctaid=(1,5,0) tid=(14,1,0)
GPGPU-Sim PTX: 35900000 instructions simulated : ctaid=(3,14,0) tid=(0,3,0)
GPGPU-Sim uArch: cycles simulated: 65500  inst.: 32012685 (ipc=488.7) sim_rate=307814 (inst/sec) elapsed = 0:0:01:44 / Wed Apr 17 12:24:36 2019
GPGPU-Sim PTX: 36000000 instructions simulated : ctaid=(2,16,0) tid=(25,0,0)
GPGPU-Sim PTX: 36100000 instructions simulated : ctaid=(0,24,0) tid=(16,2,0)
GPGPU-Sim PTX: 36200000 instructions simulated : ctaid=(0,9,0) tid=(19,2,0)
GPGPU-Sim PTX: 36300000 instructions simulated : ctaid=(1,7,0) tid=(21,2,0)
GPGPU-Sim PTX: 36400000 instructions simulated : ctaid=(3,15,0) tid=(6,2,0)
GPGPU-Sim PTX: 36500000 instructions simulated : ctaid=(3,4,0) tid=(0,1,0)
GPGPU-Sim uArch: cycles simulated: 66500  inst.: 32520000 (ipc=489.0) sim_rate=309714 (inst/sec) elapsed = 0:0:01:45 / Wed Apr 17 12:24:37 2019
GPGPU-Sim PTX: 36600000 instructions simulated : ctaid=(2,10,0) tid=(8,2,0)
GPGPU-Sim PTX: 36700000 instructions simulated : ctaid=(1,3,0) tid=(9,3,0)
GPGPU-Sim PTX: 36800000 instructions simulated : ctaid=(3,9,0) tid=(6,2,0)
GPGPU-Sim uArch: cycles simulated: 67000  inst.: 32795470 (ipc=489.5) sim_rate=309391 (inst/sec) elapsed = 0:0:01:46 / Wed Apr 17 12:24:38 2019
GPGPU-Sim PTX: 36900000 instructions simulated : ctaid=(1,11,0) tid=(0,1,0)
GPGPU-Sim PTX: 37000000 instructions simulated : ctaid=(0,7,0) tid=(29,0,0)
GPGPU-Sim PTX: 37100000 instructions simulated : ctaid=(0,22,0) tid=(9,1,0)
GPGPU-Sim uArch: cycles simulated: 67500  inst.: 33047062 (ipc=489.6) sim_rate=308851 (inst/sec) elapsed = 0:0:01:47 / Wed Apr 17 12:24:39 2019
GPGPU-Sim PTX: 37200000 instructions simulated : ctaid=(1,21,0) tid=(25,2,0)
GPGPU-Sim PTX: 37300000 instructions simulated : ctaid=(1,1,0) tid=(18,1,0)
GPGPU-Sim PTX: 37400000 instructions simulated : ctaid=(0,4,0) tid=(3,1,0)
GPGPU-Sim PTX: 37500000 instructions simulated : ctaid=(1,3,0) tid=(2,3,0)
GPGPU-Sim PTX: 37600000 instructions simulated : ctaid=(1,15,0) tid=(19,1,0)
GPGPU-Sim PTX: 37700000 instructions simulated : ctaid=(1,1,0) tid=(11,2,0)
GPGPU-Sim uArch: cycles simulated: 68500  inst.: 33579990 (ipc=490.2) sim_rate=310925 (inst/sec) elapsed = 0:0:01:48 / Wed Apr 17 12:24:40 2019
GPGPU-Sim PTX: 37800000 instructions simulated : ctaid=(2,24,0) tid=(22,3,0)
GPGPU-Sim PTX: 37900000 instructions simulated : ctaid=(0,5,0) tid=(1,1,0)
GPGPU-Sim uArch: cycles simulated: 69000  inst.: 33828553 (ipc=490.3) sim_rate=310353 (inst/sec) elapsed = 0:0:01:49 / Wed Apr 17 12:24:41 2019
GPGPU-Sim PTX: 38000000 instructions simulated : ctaid=(1,21,0) tid=(15,2,0)
GPGPU-Sim PTX: 38100000 instructions simulated : ctaid=(0,19,0) tid=(22,1,0)
GPGPU-Sim PTX: 38200000 instructions simulated : ctaid=(2,6,0) tid=(12,2,0)
GPGPU-Sim PTX: 38300000 instructions simulated : ctaid=(2,21,0) tid=(13,0,0)
GPGPU-Sim uArch: cycles simulated: 69500  inst.: 34115092 (ipc=490.9) sim_rate=310137 (inst/sec) elapsed = 0:0:01:50 / Wed Apr 17 12:24:42 2019
GPGPU-Sim PTX: 38400000 instructions simulated : ctaid=(2,14,0) tid=(5,3,0)
GPGPU-Sim PTX: 38500000 instructions simulated : ctaid=(2,23,0) tid=(15,2,0)
GPGPU-Sim PTX: 38600000 instructions simulated : ctaid=(3,5,0) tid=(15,0,0)
GPGPU-Sim PTX: 38700000 instructions simulated : ctaid=(2,2,0) tid=(26,3,0)
GPGPU-Sim PTX: 38800000 instructions simulated : ctaid=(0,24,0) tid=(22,1,0)
GPGPU-Sim uArch: cycles simulated: 70500  inst.: 34610669 (ipc=490.9) sim_rate=311807 (inst/sec) elapsed = 0:0:01:51 / Wed Apr 17 12:24:43 2019
GPGPU-Sim PTX: 38900000 instructions simulated : ctaid=(1,5,0) tid=(18,1,0)
GPGPU-Sim PTX: 39000000 instructions simulated : ctaid=(0,21,0) tid=(26,0,0)
GPGPU-Sim PTX: 39100000 instructions simulated : ctaid=(1,15,0) tid=(6,3,0)
GPGPU-Sim uArch: cycles simulated: 71000  inst.: 34889115 (ipc=491.4) sim_rate=311509 (inst/sec) elapsed = 0:0:01:52 / Wed Apr 17 12:24:44 2019
GPGPU-Sim PTX: 39200000 instructions simulated : ctaid=(0,22,0) tid=(7,0,0)
GPGPU-Sim PTX: 39300000 instructions simulated : ctaid=(2,9,0) tid=(13,1,0)
GPGPU-Sim PTX: 39400000 instructions simulated : ctaid=(0,15,0) tid=(3,2,0)
GPGPU-Sim uArch: cycles simulated: 71500  inst.: 35156179 (ipc=491.7) sim_rate=311116 (inst/sec) elapsed = 0:0:01:53 / Wed Apr 17 12:24:45 2019
GPGPU-Sim PTX: 39500000 instructions simulated : ctaid=(1,2,0) tid=(5,3,0)
GPGPU-Sim PTX: 39600000 instructions simulated : ctaid=(0,4,0) tid=(28,0,0)
GPGPU-Sim PTX: 39700000 instructions simulated : ctaid=(3,3,0) tid=(1,3,0)
GPGPU-Sim uArch: cycles simulated: 72000  inst.: 35411120 (ipc=491.8) sim_rate=310623 (inst/sec) elapsed = 0:0:01:54 / Wed Apr 17 12:24:46 2019
GPGPU-Sim PTX: 39800000 instructions simulated : ctaid=(1,1,0) tid=(22,3,0)
GPGPU-Sim PTX: 39900000 instructions simulated : ctaid=(2,17,0) tid=(21,0,0)
GPGPU-Sim PTX: 40000000 instructions simulated : ctaid=(1,9,0) tid=(9,2,0)
GPGPU-Sim PTX: 40100000 instructions simulated : ctaid=(1,11,0) tid=(19,0,0)
GPGPU-Sim PTX: 40200000 instructions simulated : ctaid=(1,15,0) tid=(11,2,0)
GPGPU-Sim PTX: 40300000 instructions simulated : ctaid=(0,9,0) tid=(31,3,0)
GPGPU-Sim uArch: cycles simulated: 73000  inst.: 35959190 (ipc=492.6) sim_rate=312688 (inst/sec) elapsed = 0:0:01:55 / Wed Apr 17 12:24:47 2019
GPGPU-Sim PTX: 40400000 instructions simulated : ctaid=(0,4,0) tid=(19,1,0)
GPGPU-Sim PTX: 40500000 instructions simulated : ctaid=(0,22,0) tid=(5,3,0)
GPGPU-Sim PTX: 40600000 instructions simulated : ctaid=(1,0,0) tid=(16,2,0)
GPGPU-Sim uArch: cycles simulated: 73500  inst.: 36207902 (ipc=492.6) sim_rate=312137 (inst/sec) elapsed = 0:0:01:56 / Wed Apr 17 12:24:48 2019
GPGPU-Sim PTX: 40700000 instructions simulated : ctaid=(1,17,0) tid=(23,1,0)
GPGPU-Sim PTX: 40800000 instructions simulated : ctaid=(2,22,0) tid=(22,3,0)
GPGPU-Sim PTX: 40900000 instructions simulated : ctaid=(3,21,0) tid=(1,0,0)
GPGPU-Sim uArch: cycles simulated: 74000  inst.: 36466731 (ipc=492.8) sim_rate=311681 (inst/sec) elapsed = 0:0:01:57 / Wed Apr 17 12:24:49 2019
GPGPU-Sim PTX: 41000000 instructions simulated : ctaid=(2,10,0) tid=(31,3,0)
GPGPU-Sim PTX: 41100000 instructions simulated : ctaid=(0,3,0) tid=(4,3,0)
GPGPU-Sim PTX: 41200000 instructions simulated : ctaid=(1,23,0) tid=(18,2,0)
GPGPU-Sim PTX: 41300000 instructions simulated : ctaid=(2,14,0) tid=(5,2,0)
GPGPU-Sim PTX: 41400000 instructions simulated : ctaid=(3,4,0) tid=(27,3,0)
GPGPU-Sim PTX: 41500000 instructions simulated : ctaid=(2,15,0) tid=(14,0,0)
GPGPU-Sim uArch: cycles simulated: 75000  inst.: 36994726 (ipc=493.3) sim_rate=313514 (inst/sec) elapsed = 0:0:01:58 / Wed Apr 17 12:24:50 2019
GPGPU-Sim PTX: 41600000 instructions simulated : ctaid=(2,16,0) tid=(14,1,0)
GPGPU-Sim PTX: 41700000 instructions simulated : ctaid=(0,17,0) tid=(3,1,0)
GPGPU-Sim PTX: 41800000 instructions simulated : ctaid=(3,12,0) tid=(2,3,0)
GPGPU-Sim uArch: cycles simulated: 75500  inst.: 37271805 (ipc=493.7) sim_rate=313208 (inst/sec) elapsed = 0:0:01:59 / Wed Apr 17 12:24:51 2019
GPGPU-Sim PTX: 41900000 instructions simulated : ctaid=(0,4,0) tid=(28,2,0)
GPGPU-Sim PTX: 42000000 instructions simulated : ctaid=(0,1,0) tid=(29,1,0)
GPGPU-Sim PTX: 42100000 instructions simulated : ctaid=(2,0,0) tid=(30,3,0)
GPGPU-Sim uArch: cycles simulated: 76000  inst.: 37539871 (ipc=493.9) sim_rate=312832 (inst/sec) elapsed = 0:0:02:00 / Wed Apr 17 12:24:52 2019
GPGPU-Sim PTX: 42200000 instructions simulated : ctaid=(0,20,0) tid=(1,1,0)
GPGPU-Sim PTX: 42300000 instructions simulated : ctaid=(2,12,0) tid=(10,3,0)
GPGPU-Sim PTX: 42400000 instructions simulated : ctaid=(2,13,0) tid=(29,2,0)
GPGPU-Sim PTX: 42500000 instructions simulated : ctaid=(2,4,0) tid=(15,0,0)
GPGPU-Sim PTX: 42600000 instructions simulated : ctaid=(0,24,0) tid=(27,1,0)
GPGPU-Sim PTX: 42700000 instructions simulated : ctaid=(0,24,0) tid=(8,2,0)
[...]
traffic_breakdown_memtocore[GLOBAL_ACC_W] = 530000 {8:66250,}
traffic_breakdown_memtocore[INST_ACC_R] = 28560 {136:210,}
maxmrqlatency = 606 
maxdqlatency = 0 
maxmflatency = 1265 
averagemflatency = 267 
max_icnt2mem_latency = 519 
max_icnt2sh_latency = 163438 
mrq_lat_table:49036 	3552 	3942 	9707 	23738 	22393 	11391 	2353 	254 	18 	0 	0 	0 	0 	0 	0 	0 	0 	0 	0 	0 	0 	0 	0 	0 	0 	0 	0 	0 	0 	0 	0 	
dq_lat_table:0 	0 	0 	0 	0 	0 	0 	0 	0 	0 	0 	0 	0 	0 	0 	0 	0 	0 	0 	0 	0 	0 	0 	0 	0 	0 	0 	0 	0 	0 	0 	0 	
mf_lat_table:0 	0 	0 	0 	0 	0 	0 	73370 	101241 	2503 	101 	0 	0 	0 	0 	0 	0 	0 	0 	0 	0 	0 	0 	0 	0 	0 	0 	0 	0 	0 	0 	0 	
icnt2mem_lat_table:0 	0 	0 	113094 	49801 	11186 	2232 	809 	302 	1 	0 	0 	0 	0 	0 	0 	0 	0 	0 	0 	0 	0 	0 	0 	
icnt2sh_lat_table:0 	0 	0 	20252 	64917 	25098 	698 	0 	0 	0 	0 	0 	1291 	3519 	7642 	15753 	31627 	6418 	0 	0 	0 	0 	0 	0 	
mf_lat_pw_table:0 	0 	0 	0 	0 	0 	0 	154 	168 	2 	0 	0 	0 	0 	0 	0 	0 	0 	0 	0 	0 	0 	0 	0 	0 	0 	0 	0 	0 	0 	0 	0 	
maximum concurrent accesses to same row:
dram[0]:        27        20        29        27        42        24        42        32        61        70        26        43        29        34        23        27 
dram[1]:        23        24        20        24        22        28        33        32        53        73        35        36        25        22        25        25 
dram[2]:        18        25        15        38        20        26        32        32        60        69        32        38        15        25        19        22 
dram[3]:        21        20        14        50        30        47        32        32        66        75        36        37        21        40        34        52 
dram[4]:        21        21        20        33        25        55        32        32        68        64        41        24        21        36        33        34 
dram[5]:        17        26        22        38        20        22        32        32        70        65        28        47        17        27        25        21 
maximum service time to same row:
dram[0]:     11666     11064     14009     14116     14105     14325     15868     15894     12188     11703     11295     10908     11150     10495     10650     10880 
dram[1]:     11506     12285     14024     14141     14122     14351     15877     15917     11881     12169     11130     11172     11190     10904     11071     11037 
dram[2]:     11616     12660     14010     14137     14121     14385     15203     16060     12224     12016     11358     11260     10909     10959     11039     11178 
dram[3]:     10956     12531     14027     14152     14132     14374     15882     15978     12003     13168     10989     11022     10935     10819     11267     11164 
dram[4]:     10753     12521     14046     14166     14136     14281     15909     15960     12689     12406     10996     11465     10659     10776     11012     11179 
dram[5]:     11041     12604     14013     14163     13728     13488     15909     16207     11881     12316     10882     11411     10790     10932     10906     11150 
average row accesses per activate:
dram[0]:  3.023148  3.103865  3.107914  3.128641  3.103117  3.131579  3.052995  3.043678  3.467337  3.356627  3.253041  3.299505  3.068558  3.040000  3.088305  3.004608 
dram[1]:  3.039535  3.016432  3.206468  2.988426  3.092857  3.000000  3.134434  3.130952  3.322034  3.427518  3.471354  3.281174  2.979263  3.301266  3.039906  3.101415 
dram[2]:  3.075650  3.128019  2.907449  3.107399  3.004662  3.025463  3.117371  3.148325  3.462312  3.245370  3.385391  3.116550  3.162562  3.134615  3.032864  3.114558 
dram[3]:  3.080569  3.204489  2.970115  3.058548  2.993104  3.068558  3.041379  3.271605  3.245823  3.547739  3.180095  3.293827  2.967742  3.088095  2.986047  3.129808 
dram[4]:  3.044601  3.160976  2.893905  3.109524  2.912946  2.952273  3.098592  3.120853  3.334951  3.532828  3.094253  3.351010  2.983908  3.264339  2.952055  3.056338 
dram[5]:  2.925339  3.128641  2.940639  3.068396  3.124700  3.025522  2.860566  3.243902  3.138322  3.471322  3.152941  3.273839  3.009346  3.183374  3.107656  3.115108 
average row locality = 126384/40398 = 3.128472
number of total memory accesses made:
dram[0]:         0         0         0         0         0         0         0         0         0         0         0         0         0         0         0         0 
dram[1]:         0         0         0         0         0         0         0         0         0         0         0         0         0         0         0         0 
dram[2]:         0         0         0         0         0         0         0         0         0         0         0         0         0         0         0         0 
dram[3]:         0         0         0         0         0         0         0         0         0         0         0         0         0         0         0         0 
dram[4]:         0         0         0         0         0         0         0         0         0         0         0         0         0         0         0         0 
dram[5]:         0         0         0         0         0         0         0         0         0         0         0         0         0         0         0         0 
total accesses: 0
min_bank_accesses = 0!
min_chip_accesses = 0!
number of total read accesses:
dram[0]:       649       645       647       645       653       655       674       680       676       679       661       662       648       645       647       644 
dram[1]:       647       644       647       646       654       655       674       677       677       679       656       665       644       650       643       651 
dram[2]:       643       651       640       647       650       659       673       680       674       679       657       663       645       646       644       648 
dram[3]:       643       647       643       648       653       658       674       681       673       680       656       666       642       646       643       647 
dram[4]:       644       652       641       650       653       656       676       677       675       680       662       660       645       646       643       647 
dram[5]:       647       647       647       649       654       658       675       678       674       680       660       662       645       644       644       647 
total reads: 63036
bank skew: 681/640 = 1.06
chip skew: 10511/10499 = 1.00
number of total write accesses:
dram[0]:       657       640       649       644       641       654       651       644       704       714       676       671       650       647       647       660 
dram[1]:       660       641       642       645       645       650       655       638       695       716       677       677       649       654       652       664 
dram[2]:       658       644       648       655       639       648       655       636       704       723       687       674       639       658       648       657 
dram[3]:       657       638       649       658       649       640       649       644       687       732       686       668       646       651       641       655 
dram[4]:       653       644       641       656       652       643       644       640       699       719       684       667       653       663       650       655 
dram[5]:       646       642       641       652       649       646       638       652       710       712       680       677       643       658       655       652 
total reads: 63348
bank skew: 732/636 = 1.15
chip skew: 10573/10549 = 1.00
average mf latency per bank:
dram[0]:        366       368       360       363       375       361       387       383       385       392       368       372       376       379       374       370
dram[1]:        368       358       357       355       364       366       377       385       390       402       370       375       370       367       374       369
dram[2]:        359       365       362       364       369       369       377       381       389       386       373       372       365       365       359       376
dram[3]:        362       380       361       372       364       377       380       388       390       400       366       388       368       391       362       379
dram[4]:        357       373       362       363       365       390       386       389       385       394       364       386       368       392       370       375
dram[5]:        360       374       362       371       368       368       384       379       394       390       369       384       375       378       362       382
maximum mf latency per bank:
dram[0]:        749       596       560       595       884       476       784       656      1022      1144       775      1038       759       745       613       574
dram[1]:        543       495       587       557       545       654       597       575      1036      1150       747       815       729       697       587       656
dram[2]:        608       525       498       619       570       648       606       603      1122      1030       623       694       549       647       489       676
dram[3]:        621       742       569       834       564       796       601       620       995      1265       889       846       670       765       591       822
dram[4]:        539       703       599       590       483       940       560       671      1118      1150       825       773       668       853       708       678
dram[5]:        582       563       635       665       549       571       555       602      1136      1188       759       829       680       627       617       700

Number of Memory Banks Accessed per Memory Operation per Warp (from 0):
0	0	0	0	0	0	0	0	0	0	0	0	0	0	0	0	0	0	0	0	0	0	0	0	0	0	0	0	0	0	0	0	0	0	0	0	0	0	0	0	0	0	0	0	0	0	0	0	0	0	0	0	0	0	0	0	0	0	0	0	0	0	0	0	0	0	0	0	0	0	0	0	0	0	0	0	0	0	0	0	0	0	0	0	0	0	0	0	0	0	0	0	0	0	0	0	
Average # of Memory Banks Accessed per Memory Operation per Warp=-nan

position of mrq chosen
0	0	0	0	0	0	0	0	0	0	0	0	0	0	0	0	

average position of mrq chosen = -nan
Memory Partition 0: 
Cache L2_bank_000:
MSHR contents

Cache L2_bank_001:
MSHR contents

In Dram Latency Queue (total = 0): 
DRAM[0]: 16 bks, busW=4 BL=8 CL=12, tRRD=2 tCCD=6, tRCD=12 tRAS=28 tRP=12 tRC=40
n_cmd=215739 n_nop=165444 n_act=6708 n_pre=6692 n_req=21059 n_rd=21020 n_write=15875 bw_util=0.342
n_activity=186579 dram_eff=0.3955
bk0: 1298a 183557i bk1: 1290a 184820i bk2: 1294a 184721i bk3: 1290a 184602i bk4: 1306a 183869i bk5: 1310a 184216i bk6: 1348a 184231i bk7: 1360a 182306i bk8: 1352a 183655i bk9: 1358a 183311i bk10: 1322a 183525i bk11: 1324a 183569i bk12: 1296a 183685i bk13: 1290a 182680i bk14: 1294a 184175i bk15: 1288a 182896i 
dram_util_bins: 0 0 0 0 0 0 0 0 0 0
dram_eff_bins: 0 0 0 0 0 0 0 0 0 0
mrqq: max=16 avg=3.13527
Memory Partition 1: 
Cache L2_bank_002:
MSHR contents

Cache L2_bank_003:
MSHR contents

In Dram Latency Queue (total = 0): 
DRAM[1]: 16 bks, busW=4 BL=8 CL=12, tRRD=2 tCCD=6, tRCD=12 tRAS=28 tRP=12 tRC=40
n_cmd=215739 n_nop=165499 n_act=6681 n_pre=6665 n_req=21069 n_rd=21018 n_write=15876 bw_util=0.342
n_activity=186003 dram_eff=0.3967
bk0: 1294a 184349i bk1: 1288a 185353i bk2: 1294a 185079i bk3: 1292a 184417i bk4: 1308a 184583i bk5: 1310a 184067i bk6: 1348a 184386i bk7: 1354a 182918i bk8: 1354a 183083i bk9: 1358a 183215i bk10: 1312a 185254i bk11: 1330a 183434i bk12: 1288a 183237i bk13: 1300a 183348i bk14: 1286a 183099i bk15: 1302a 183845i 
dram_util_bins: 0 0 0 0 0 0 0 0 0 0
dram_eff_bins: 0 0 0 0 0 0 0 0 0 0
mrqq: max=16 avg=3.16204
Memory Partition 2: 
Cache L2_bank_004:
MSHR contents

Cache L2_bank_005:
MSHR contents

In Dram Latency Queue (total = 0): 
DRAM[2]: 16 bks, busW=4 BL=8 CL=12, tRRD=2 tCCD=6, tRCD=12 tRAS=28 tRP=12 tRC=40
n_cmd=215739 n_nop=165404 n_act=6727 n_pre=6711 n_req=21072 n_rd=20998 n_write=15899 bw_util=0.3421
n_activity=185972 dram_eff=0.3968
bk0: 1286a 184887i bk1: 1302a 185397i bk2: 1280a 183138i bk3: 1294a 184149i bk4: 1300a 183624i bk5: 1318a 183008i bk6: 1346a 183808i bk7: 1360a 183634i bk8: 1348a 184091i bk9: 1358a 182609i bk10: 1314a 183660i bk11: 1326a 182574i bk12: 1290a 184103i bk13: 1292a 183292i bk14: 1288a 184678i bk15: 1296a 182922i 
dram_util_bins: 0 0 0 0 0 0 0 0 0 0
dram_eff_bins: 0 0 0 0 0 0 0 0 0 0
mrqq: max=16 avg=3.0636
Memory Partition 3: 
Cache L2_bank_006:
MSHR contents

Cache L2_bank_007:
MSHR contents

In Dram Latency Queue (total = 0): 
DRAM[3]: 16 bks, busW=4 BL=8 CL=12, tRRD=2 tCCD=6, tRCD=12 tRAS=28 tRP=12 tRC=40
n_cmd=215739 n_nop=165464 n_act=6727 n_pre=6711 n_req=21050 n_rd=21000 n_write=15837 bw_util=0.3415
n_activity=185964 dram_eff=0.3962
bk0: 1286a 184590i bk1: 1294a 184817i bk2: 1286a 183913i bk3: 1296a 183755i bk4: 1306a 184318i bk5: 1316a 183592i bk6: 1348a 183875i bk7: 1362a 183139i bk8: 1346a 183851i bk9: 1360a 183703i bk10: 1312a 183625i bk11: 1332a 184296i bk12: 1284a 183847i bk13: 1292a 182811i bk14: 1286a 184218i bk15: 1294a 183136i 
dram_util_bins: 0 0 0 0 0 0 0 0 0 0
dram_eff_bins: 0 0 0 0 0 0 0 0 0 0
mrqq: max=16 avg=3.22192
Memory Partition 4: 
Cache L2_bank_008:
MSHR contents

Cache L2_bank_009:
MSHR contents

In Dram Latency Queue (total = 0): 
DRAM[4]: 16 bks, busW=4 BL=8 CL=12, tRRD=2 tCCD=6, tRCD=12 tRAS=28 tRP=12 tRC=40
n_cmd=215739 n_nop=165313 n_act=6774 n_pre=6758 n_req=21070 n_rd=21014 n_write=15880 bw_util=0.342
n_activity=185980 dram_eff=0.3968
bk0: 1288a 184965i bk1: 1304a 185669i bk2: 1282a 183413i bk3: 1300a 184792i bk4: 1306a 183361i bk5: 1312a 183480i bk6: 1352a 184247i bk7: 1354a 182851i bk8: 1350a 184115i bk9: 1360a 182786i bk10: 1324a 182963i bk11: 1320a 183249i bk12: 1290a 183663i bk13: 1292a 183916i bk14: 1286a 184093i bk15: 1294a 183475i 
dram_util_bins: 0 0 0 0 0 0 0 0 0 0
dram_eff_bins: 0 0 0 0 0 0 0 0 0 0
mrqq: max=16 avg=3.19533
Memory Partition 5: 
Cache L2_bank_010:
MSHR contents

Cache L2_bank_011:
MSHR contents

In Dram Latency Queue (total = 0): 
DRAM[5]: 16 bks, busW=4 BL=8 CL=12, tRRD=2 tCCD=6, tRCD=12 tRAS=28 tRP=12 tRC=40
n_cmd=215739 n_nop=165273 n_act=6781 n_pre=6765 n_req=21064 n_rd=21022 n_write=15898 bw_util=0.3423
n_activity=186996 dram_eff=0.3949
bk0: 1294a 183469i bk1: 1294a 184745i bk2: 1294a 183886i bk3: 1298a 183622i bk4: 1308a 184226i bk5: 1316a 183240i bk6: 1350a 183419i bk7: 1356a 183504i bk8: 1348a 182231i bk9: 1360a 181695i bk10: 1320a 183772i bk11: 1324a 183478i bk12: 1290a 183115i bk13: 1288a 183867i bk14: 1288a 184375i bk15: 1294a 183162i 
dram_util_bins: 0 0 0 0 0 0 0 0 0 0
dram_eff_bins: 0 0 0 0 0 0 0 0 0 0
mrqq: max=16 avg=3.17196

========= L2 cache stats =========
L2_cache_bank[0]: Access = 14813, Miss = 5255, Miss_rate = 0.355, Pending_hits = 4020, Reservation_fails = 1028
L2_cache_bank[1]: Access = 14796, Miss = 5255, Miss_rate = 0.355, Pending_hits = 4003, Reservation_fails = 673
L2_cache_bank[2]: Access = 14803, Miss = 5242, Miss_rate = 0.354, Pending_hits = 3965, Reservation_fails = 1241
L2_cache_bank[3]: Access = 14759, Miss = 5267, Miss_rate = 0.357, Pending_hits = 4017, Reservation_fails = 485
L2_cache_bank[4]: Access = 14807, Miss = 5226, Miss_rate = 0.353, Pending_hits = 3930, Reservation_fails = 796
L2_cache_bank[5]: Access = 14760, Miss = 5273, Miss_rate = 0.357, Pending_hits = 4009, Reservation_fails = 346
L2_cache_bank[6]: Access = 14805, Miss = 5227, Miss_rate = 0.353, Pending_hits = 3922, Reservation_fails = 809
L2_cache_bank[7]: Access = 14761, Miss = 5273, Miss_rate = 0.357, Pending_hits = 4012, Reservation_fails = 447
L2_cache_bank[8]: Access = 14798, Miss = 5239, Miss_rate = 0.354, Pending_hits = 3903, Reservation_fails = 513
L2_cache_bank[9]: Access = 14760, Miss = 5268, Miss_rate = 0.357, Pending_hits = 4082, Reservation_fails = 911
L2_cache_bank[10]: Access = 14797, Miss = 5246, Miss_rate = 0.355, Pending_hits = 3920, Reservation_fails = 789
L2_cache_bank[11]: Access = 14766, Miss = 5265, Miss_rate = 0.357, Pending_hits = 4022, Reservation_fails = 396
L2_total_cache_accesses = 177425
L2_total_cache_misses = 63036
L2_total_cache_miss_rate = 0.3553
L2_total_cache_pending_hits = 47805
L2_total_cache_reservation_fails = 8434
L2_total_cache_breakdown:
	L2_cache_stats_breakdown[GLOBAL_ACC_R][HIT] = 52963
	L2_cache_stats_breakdown[GLOBAL_ACC_R][HIT_RESERVED] = 26401
	L2_cache_stats_breakdown[GLOBAL_ACC_R][MISS] = 31586
	L2_cache_stats_breakdown[GLOBAL_ACC_R][RESERVATION_FAIL] = 6775
	L2_cache_stats_breakdown[CONST_ACC_R][HIT] = 11
	L2_cache_stats_breakdown[CONST_ACC_R][HIT_RESERVED] = 3
	L2_cache_stats_breakdown[CONST_ACC_R][MISS] = 1
	L2_cache_stats_breakdown[CONST_ACC_R][RESERVATION_FAIL] = 108
	L2_cache_stats_breakdown[GLOBAL_ACC_W][HIT] = 13456
	L2_cache_stats_breakdown[GLOBAL_ACC_W][HIT_RESERVED] = 21359
	L2_cache_stats_breakdown[GLOBAL_ACC_W][MISS] = 31435
	L2_cache_stats_breakdown[GLOBAL_ACC_W][RESERVATION_FAIL] = 233
	L2_cache_stats_breakdown[INST_ACC_R][HIT] = 154
	L2_cache_stats_breakdown[INST_ACC_R][HIT_RESERVED] = 42
	L2_cache_stats_breakdown[INST_ACC_R][MISS] = 14
	L2_cache_stats_breakdown[INST_ACC_R][RESERVATION_FAIL] = 1318
L2_cache_data_port_util = 0.136
L2_cache_fill_port_util = 0.129

icnt_total_pkts_mem_to_simt=622095
icnt_total_pkts_simt_to_mem=337425
LD_mem_lat_dist  0 0 0 0 0 0 0 0 0 0 0 0 0 0 0 0 0 0 0 0 0 0 0 0 0 0 0
ST_mem_lat_dist  0 0 0 0 0 0 0 0 0 0 0 0 0 0 0 0 0 0 0 0 0 0 0 0 0 0 0
----------------------------Interconnect-DETAILS--------------------------------
Class 0:
Packet latency average = 17.4281
	minimum = 6
	maximum = 434
Network latency average = 13.9215
	minimum = 6
	maximum = 407
Slowest packet = 5933
Flit latency average = 12.2945
	minimum = 6
	maximum = 407
Slowest flit = 17181
Fragmentation average = 0.0100155
	minimum = 0
	maximum = 288
Injected packet rate average = 0.0804128
	minimum = 0.0625004 (at node 13)
	maximum = 0.0906332 (at node 15)
Accepted packet rate average = 0.0804128
	minimum = 0.0625004 (at node 13)
	maximum = 0.0906332 (at node 15)
Injected flit rate average = 0.217438
	minimum = 0.116343 (at node 13)
	maximum = 0.317862 (at node 19)
Accepted flit rate average= 0.217438
	minimum = 0.171862 (at node 24)
	maximum = 0.278226 (at node 3)
Injected packet length average = 2.70402
Accepted packet length average = 2.70402
Total in-flight flits = 0 (0 measured)
====== Overall Traffic Statistics ======
====== Traffic class 0 ======
Packet latency average = 17.4281 (1 samples)
	minimum = 6 (1 samples)
	maximum = 434 (1 samples)
Network latency average = 13.9215 (1 samples)
	minimum = 6 (1 samples)
	maximum = 407 (1 samples)
Flit latency average = 12.2945 (1 samples)
	minimum = 6 (1 samples)
	maximum = 407 (1 samples)
Fragmentation average = 0.0100155 (1 samples)
	minimum = 0 (1 samples)
	maximum = 288 (1 samples)
Injected packet rate average = 0.0804128 (1 samples)
	minimum = 0.0625004 (1 samples)
	maximum = 0.0906332 (1 samples)
Accepted packet rate average = 0.0804128 (1 samples)
	minimum = 0.0625004 (1 samples)
	maximum = 0.0906332 (1 samples)
Injected flit rate average = 0.217438 (1 samples)
	minimum = 0.116343 (1 samples)
	maximum = 0.317862 (1 samples)
Accepted flit rate average = 0.217438 (1 samples)
	minimum = 0.171862 (1 samples)
	maximum = 0.278226 (1 samples)
Injected packet size average = 2.70402 (1 samples)
Accepted packet size average = 2.70402 (1 samples)
Hops average = 1 (1 samples)
----------------------------END-of-Interconnect-DETAILS-------------------------


gpgpu_simulation_time = 0 days, 0 hrs, 3 min, 44 sec (224 sec)
gpgpu_simulation_rate = 324606 (inst/sec)
gpgpu_simulation_rate = 729 (cycle/sec)
GPGPU-Sim: synchronize waiting for inactive GPU simulation
GPGPU-Sim API: Stream Manager State
GPGPU-Sim: detected inactive GPU simulation thread

1x GPU_laplace3d: 223501.656250 (ms) 

Copy u2 to host: 90.746002 (ms) 

1x Gold_laplace3d: 23.350000 (ms) 
 

 rms error = 0.000000 
CUDA_SAFE_CALL( cudaFree(d_u1) );
CUDA_SAFE_CALL( cudaFree(d_u2) );
free(h_u1);
free(h_u2);
free(h_u3);

Press ENTER to exit...
