

        *** GPGPU-Sim Simulator Version 3.2.2  [build 0] ***


GPGPU-Sim PTX: simulation mode 0 (can change with PTX_SIM_MODE_FUNC environment variable:
               1=functional simulation only, 0=detailed performance simulator)
GPGPU-Sim: Configuration options:

-network_mode                           1 # Interconnection network mode
-inter_config_file   config_fermi_islip.icnt # Interconnection network config file
-gpgpu_ptx_use_cuobjdump                    1 # Use cuobjdump to extract ptx and sass from binaries
-gpgpu_experimental_lib_support                    0 # Try to extract code from cuda libraries [Broken because of unknown cudaGetExportTable]
-gpgpu_ptx_convert_to_ptxplus                    0 # Convert SASS (native ISA) to ptxplus and run ptxplus
-gpgpu_ptx_force_max_capability                   20 # Force maximum compute capability
-gpgpu_ptx_inst_debug_to_file                    0 # Dump executed instructions' debug information to file
-gpgpu_ptx_inst_debug_file       inst_debug.txt # Executed instructions' debug output file
-gpgpu_ptx_inst_debug_thread_uid                    1 # Thread UID for executed instructions' debug output
-gpgpu_simd_model                       1 # 1 = post-dominator
-gpgpu_shader_core_pipeline              1536:32 # shader core pipeline config, i.e., {<nthread>:<warpsize>}
-gpgpu_tex_cache:l1  4:128:24,L:R:m:N:L,F:128:4,128:2 # per-shader L1 texture cache  (READ-ONLY) config  {<nsets>:<bsize>:<assoc>,<rep>:<wr>:<alloc>:<wr_alloc>,<mshr>:<N>:<merge>,<mq>:<rf>}
-gpgpu_const_cache:l1 64:64:2,L:R:f:N:L,A:2:32,4 # per-shader L1 constant memory cache  (READ-ONLY) config  {<nsets>:<bsize>:<assoc>,<rep>:<wr>:<alloc>:<wr_alloc>,<mshr>:<N>:<merge>,<mq>} 
-gpgpu_cache:il1     4:128:4,L:R:f:N:L,A:2:32,4 # shader L1 instruction cache config  {<nsets>:<bsize>:<assoc>,<rep>:<wr>:<alloc>:<wr_alloc>,<mshr>:<N>:<merge>,<mq>} 
-gpgpu_cache:dl1     32:128:1,L:L:m:N:H,A:32:8,8 # per-shader L1 data cache config  {<nsets>:<bsize>:<assoc>,<rep>:<wr>:<alloc>:<wr_alloc>,<mshr>:<N>:<merge>,<mq> | none}
-gpgpu_cache:dl1PrefL1                 none # per-shader L1 data cache config  {<nsets>:<bsize>:<assoc>,<rep>:<wr>:<alloc>:<wr_alloc>,<mshr>:<N>:<merge>,<mq> | none}
-gpgpu_cache:dl1PreShared                 none # per-shader L1 data cache config  {<nsets>:<bsize>:<assoc>,<rep>:<wr>:<alloc>:<wr_alloc>,<mshr>:<N>:<merge>,<mq> | none}
-gmem_skip_L1D                          0 # global memory access skip L1D cache (implements -Xptxas -dlcm=cg, default=no skip)
-gpgpu_perfect_mem                      0 # enable perfect memory mode (no cache miss)
-n_regfile_gating_group                    4 # group of lanes that should be read/written together)
-gpgpu_clock_gated_reg_file                    0 # enable clock gated reg file for power calculations
-gpgpu_clock_gated_lanes                    0 # enable clock gated lanes for power calculations
-gpgpu_shader_registers                32768 # Number of registers per shader core. Limits number of concurrent CTAs. (default 8192)
-gpgpu_shader_cta                       8 # Maximum number of concurrent CTAs in shader (default 8)
-gpgpu_num_cta_barriers                   16 # Maximum number of named barriers per CTA (default 16)
-gpgpu_n_clusters                      15 # number of processing clusters
-gpgpu_n_cores_per_cluster                    1 # number of simd cores per cluster
-gpgpu_n_cluster_ejection_buffer_size                    8 # number of packets in ejection buffer
-gpgpu_n_ldst_response_buffer_size                    2 # number of response packets in ld/st unit ejection buffer
-gpgpu_shmem_size                   16384 # Size of shared memory per shader core (default 16kB)
-gpgpu_shmem_size                   49152 # Size of shared memory per shader core (default 16kB)
-gpgpu_shmem_size_PrefL1                16384 # Size of shared memory per shader core (default 16kB)
-gpgpu_shmem_size_PrefShared                16384 # Size of shared memory per shader core (default 16kB)
-gpgpu_shmem_num_banks                   32 # Number of banks in the shared memory in each shader core (default 16)
-gpgpu_shmem_limited_broadcast                    0 # Limit shared memory to do one broadcast per cycle (default on)
-gpgpu_shmem_warp_parts                    1 # Number of portions a warp is divided into for shared memory bank conflict check 
-gpgpu_warpdistro_shader                   -1 # Specify which shader core to collect the warp size distribution from
-gpgpu_warp_issue_shader                    0 # Specify which shader core to collect the warp issue distribution from
-gpgpu_local_mem_map                    1 # Mapping from local memory space address to simulated GPU physical address space (default = enabled)
-gpgpu_num_reg_banks                   16 # Number of register banks (default = 8)
-gpgpu_reg_bank_use_warp_id                    0 # Use warp ID in mapping registers to banks (default = off)
-gpgpu_operand_collector_num_units_sp                    6 # number of collector units (default = 4)
-gpgpu_operand_collector_num_units_sfu                    8 # number of collector units (default = 4)
-gpgpu_operand_collector_num_units_mem                    2 # number of collector units (default = 2)
-gpgpu_operand_collector_num_units_gen                    0 # number of collector units (default = 0)
-gpgpu_operand_collector_num_in_ports_sp                    2 # number of collector unit in ports (default = 1)
-gpgpu_operand_collector_num_in_ports_sfu                    1 # number of collector unit in ports (default = 1)
-gpgpu_operand_collector_num_in_ports_mem                    1 # number of collector unit in ports (default = 1)
-gpgpu_operand_collector_num_in_ports_gen                    0 # number of collector unit in ports (default = 0)
-gpgpu_operand_collector_num_out_ports_sp                    2 # number of collector unit in ports (default = 1)
-gpgpu_operand_collector_num_out_ports_sfu                    1 # number of collector unit in ports (default = 1)
-gpgpu_operand_collector_num_out_ports_mem                    1 # number of collector unit in ports (default = 1)
-gpgpu_operand_collector_num_out_ports_gen                    0 # number of collector unit in ports (default = 0)
-gpgpu_coalesce_arch                   13 # Coalescing arch (default = 13, anything else is off for now)
-gpgpu_num_sched_per_core                    2 # Number of warp schedulers per core
-gpgpu_max_insn_issue_per_warp                    1 # Max number of instructions that can be issued per warp in one cycle by scheduler
-gpgpu_simt_core_sim_order                    1 # Select the simulation order of cores in a cluster (0=Fix, 1=Round-Robin)
-gpgpu_pipeline_widths        2,1,1,2,1,1,2 # Pipeline widths ID_OC_SP,ID_OC_SFU,ID_OC_MEM,OC_EX_SP,OC_EX_SFU,OC_EX_MEM,EX_WB
-gpgpu_num_sp_units                     2 # Number of SP units (default=1)
-gpgpu_num_sfu_units                    1 # Number of SF units (default=1)
-gpgpu_num_mem_units                    1 # Number if ldst units (default=1) WARNING: not hooked up to anything
-gpgpu_scheduler                      gto # Scheduler configuration: < lrr | gto | two_level_active > If two_level_active:<num_active_warps>:<inner_prioritization>:<outer_prioritization>For complete list of prioritization values see shader.h enum scheduler_prioritization_typeDefault: gto
-gpgpu_dram_scheduler                    1 # 0 = fifo, 1 = FR-FCFS (defaul)
-gpgpu_dram_partition_queues              8:8:8:8 # i2$:$2d:d2$:$2i
-l2_ideal                               0 # Use a ideal L2 cache that always hit
-gpgpu_cache:dl2     64:128:8,L:B:m:W:L,A:32:4,4:0,32 # unified banked L2 data cache config  {<nsets>:<bsize>:<assoc>,<rep>:<wr>:<alloc>:<wr_alloc>,<mshr>:<N>:<merge>,<mq>}
-gpgpu_cache:dl2_texture_only                    0 # L2 cache used for texture only
-gpgpu_n_mem                            6 # number of memory modules (e.g. memory controllers) in gpu
-gpgpu_n_sub_partition_per_mchannel                    2 # number of memory subpartition in each memory module
-gpgpu_n_mem_per_ctrlr                    2 # number of memory chips per memory controller
-gpgpu_memlatency_stat                   14 # track and display latency statistics 0x2 enables MC, 0x4 enables queue logs
-gpgpu_frfcfs_dram_sched_queue_size                   16 # 0 = unlimited (default); # entries per chip
-gpgpu_dram_return_queue_size                  116 # 0 = unlimited (default); # entries per chip
-gpgpu_dram_buswidth                    4 # default = 4 bytes (8 bytes per cycle at DDR)
-gpgpu_dram_burst_length                    8 # Burst length of each DRAM request (default = 4 data bus cycle)
-dram_data_command_freq_ratio                    4 # Frequency ratio between DRAM data bus and command bus (default = 2 times, i.e. DDR)
-gpgpu_dram_timing_opt nbk=16:CCD=2:RRD=6:RCD=12:RAS=28:RP=12:RC=40: CL=12:WL=4:CDLR=5:WR=12:nbkgrp=4:CCDL=3:RTPL=2 # DRAM timing parameters = {nbk:tCCD:tRRD:tRCD:tRAS:tRP:tRC:CL:WL:tCDLR:tWR:nbkgrp:tCCDL:tRTPL}
-rop_latency                          120 # ROP queue latency (default 85)
-dram_latency                         100 # DRAM latency (default 30)
-gpgpu_mem_addr_mapping dramid@8;00000000.00000000.00000000.00000000.0000RRRR.RRRRRRRR.BBBCCCCB.CCSSSSSS # mapping memory address to dram model {dramid@<start bit>;<memory address map>}
-gpgpu_mem_addr_test                    0 # run sweep test to check address mapping for aliased address
-gpgpu_mem_address_mask                    1 # 0 = old addressing mask, 1 = new addressing mask, 2 = new add. mask + flipped bank sel and chip sel bits
-gpuwattch_xml_file  gpuwattch_gtx480.xml # GPUWattch XML file
-power_simulation_enabled                    1 # Turn on power simulator (1=On, 0=Off)
-power_per_cycle_dump                    0 # Dump detailed power output each cycle
-power_trace_enabled                    0 # produce a file for the power trace (1=On, 0=Off)
-power_trace_zlevel                     6 # Compression level of the power trace output log (0=no comp, 9=highest)
-steady_power_levels_enabled                    0 # produce a file for the steady power levels (1=On, 0=Off)
-steady_state_definition                  8:4 # allowed deviation:number of samples
-gpgpu_max_cycle                        0 # terminates gpu simulation early (0 = no limit)
-gpgpu_max_insn                         0 # terminates gpu simulation early (0 = no limit)
-gpgpu_max_cta                          0 # terminates gpu simulation early (0 = no limit)
-gpgpu_runtime_stat                   500 # display runtime statistics such as dram utilization {<freq>:<flag>}
-liveness_message_freq                    1 # Minimum number of seconds between simulation liveness messages (0 = always print)
-gpgpu_flush_l1_cache                    0 # Flush L1 cache at the end of each kernel call
-gpgpu_flush_l2_cache                    0 # Flush L2 cache at the end of each kernel call
-gpgpu_deadlock_detect                    1 # Stop the simulation at deadlock (1=on (default), 0=off)
-gpgpu_ptx_instruction_classification                    0 # if enabled will classify ptx instruction types per kernel (Max 255 kernels now)
-gpgpu_ptx_sim_mode                     0 # Select between Performance (default) or Functional simulation (1)
-gpgpu_clock_domains 700.0:700.0:700.0:924.0 # Clock Domain Frequencies in MhZ {<Core Clock>:<ICNT Clock>:<L2 Clock>:<DRAM Clock>}
-gpgpu_max_concurrent_kernel                    8 # maximum kernels that can run concurrently on GPU
-gpgpu_cflog_interval                    0 # Interval between each snapshot in control flow logger
-visualizer_enabled                     0 # Turn on visualizer output (1=On, 0=Off)
-visualizer_outputfile                 NULL # Specifies the output log file for visualizer
-visualizer_zlevel                      6 # Compression level of the visualizer output log (0=no comp, 9=highest)
-trace_enabled                          0 # Turn on traces
-trace_components                    none # comma seperated list of traces to enable. Complete list found in trace_streams.tup. Default none
-trace_sampling_core                    0 # The core which is printed using CORE_DPRINTF. Default 0
-trace_sampling_memory_partition                   -1 # The memory partition which is printed using MEMPART_DPRINTF. Default -1 (i.e. all)
-enable_ptx_file_line_stats                    1 # Turn on PTX source line statistic profiling. (1 = On)
-ptx_line_stats_filename gpgpu_inst_stats.txt # Output file for PTX source line statistics.
-save_embedded_ptx                      0 # saves ptx files embedded in binary as <n>.ptx
-keep                                   0 # keep intermediate files created by GPGPU-Sim when interfacing with external programs
-gpgpu_ptx_save_converted_ptxplus                    0 # Saved converted ptxplus to a file
-ptx_opcode_latency_int         4,13,4,5,145 # Opcode latencies for integers <ADD,MAX,MUL,MAD,DIV>Default 1,1,19,25,145
-ptx_opcode_latency_fp          4,13,4,5,39 # Opcode latencies for single precision floating points <ADD,MAX,MUL,MAD,DIV>Default 1,1,1,1,30
-ptx_opcode_latency_dp         8,19,8,8,330 # Opcode latencies for double precision floating points <ADD,MAX,MUL,MAD,DIV>Default 8,8,8,8,335
-ptx_opcode_initiation_int            1,2,2,1,8 # Opcode initiation intervals for integers <ADD,MAX,MUL,MAD,DIV>Default 1,1,4,4,32
-ptx_opcode_initiation_fp            1,2,1,1,4 # Opcode initiation intervals for single precision floating points <ADD,MAX,MUL,MAD,DIV>Default 1,1,1,1,5
-ptx_opcode_initiation_dp         8,16,8,8,130 # Opcode initiation intervals for double precision floating points <ADD,MAX,MUL,MAD,DIV>Default 8,8,8,8,130
DRAM Timing Options:
nbk                                    16 # number of banks
CCD                                     2 # column to column delay
RRD                                     6 # minimal delay between activation of rows in different banks
RCD                                    12 # row to column delay
RAS                                    28 # time needed to activate row
RP                                     12 # time needed to precharge (deactivate) row
RC                                     40 # row cycle time
CDLR                                    5 # switching from write to read (changes tWTR)
WR                                     12 # last data-in to row precharge
CL                                     12 # CAS latency
WL                                      4 # Write latency
nbkgrp                                  4 # number of bank groups
CCDL                                    3 # column to column delay between accesses to different bank groups
RTPL                                    2 # read to precharge delay between accesses to different bank groups
Total number of memory sub partition = 12
addr_dec_mask[CHIP]  = 0000000000000000 	high:64 low:0
addr_dec_mask[BK]    = 000000000000e100 	high:16 low:8
addr_dec_mask[ROW]   = 000000000fff0000 	high:28 low:16
addr_dec_mask[COL]   = 0000000000001eff 	high:13 low:0
addr_dec_mask[BURST] = 000000000000003f 	high:6 low:0
sub_partition_id_mask = 0000000000000100
GPGPU-Sim uArch: clock freqs: 700000000.000000:700000000.000000:700000000.000000:924000000.000000
GPGPU-Sim uArch: clock periods: 0.00000000142857142857:0.00000000142857142857:0.00000000142857142857:0.00000000108225108225
*** Initializing Memory Statistics ***
GPGPU-Sim uArch: interconnect node map (shaderID+MemID to icntID)
GPGPU-Sim uArch: Memory nodes ID start from index: 15
GPGPU-Sim uArch:    0   1   2   3   4
GPGPU-Sim uArch:    5   6   7   8   9
GPGPU-Sim uArch:   10  11  12  13  14
GPGPU-Sim uArch:   15  16  17  18  19
GPGPU-Sim uArch:   20  21  22  23  24
GPGPU-Sim uArch:   25  26
GPGPU-Sim uArch: interconnect node reverse map (icntID to shaderID+MemID)
GPGPU-Sim uArch: Memory nodes start from ID: 15
GPGPU-Sim uArch:    0   1   2   3   4
GPGPU-Sim uArch:    5   6   7   8   9
GPGPU-Sim uArch:   10  11  12  13  14
GPGPU-Sim uArch:   15  16  17  18  19
GPGPU-Sim uArch:   20  21  22  23  24
GPGPU-Sim uArch:   25  26
575cc336cf9f8f0a73559869c93333de  /home/scratch/adwait/applications/benchmarks/CUDA/BFS2/gpgpu_ptx_sim__BFS2
GPGPU-Sim uArch: performance model initialization complete.
GPGPU-Sim PTX: __cudaRegisterFatBinary, fat_cubin_handle = 1, filename=bfs.cu
self exe links to: /home/scratch/adwait/applications/benchmarks/CUDA/BFS2/gpgpu_ptx_sim__BFS2
Running md5sum using "md5sum /home/scratch/adwait/applications/benchmarks/CUDA/BFS2/gpgpu_ptx_sim__BFS2 "
Running cuobjdump using "$CUDA_INSTALL_PATH/bin/cuobjdump -ptx -elf -sass /home/scratch/adwait/applications/benchmarks/CUDA/BFS2/gpgpu_ptx_sim__BFS2 > _cuobjdump_complete_output_1Ow997"
Parsing file _cuobjdump_complete_output_1Ow997
######### cuobjdump parser ########
## Adding new section ELF
Adding arch: sm_20
Adding identifier: bfs.cu
## Adding new section PTX
Adding ptx filename: _cuobjdump_1.ptx
Adding arch: sm_20
Adding identifier: bfs.cu
Done parsing!!!
GPGPU-Sim PTX: __cudaRegisterFunction _Z7Kernel2PbS_S_S_i : hostFun 0x0x4017d8, fat_cubin_handle = 1
GPGPU-Sim PTX: instruction assembly for function '_Z6KernelP4NodePiPbS2_S2_S1_i'...   done.
GPGPU-Sim PTX: finding reconvergence points for '_Z6KernelP4NodePiPbS2_S2_S1_i'...
GPGPU-Sim PTX: Finding dominators for '_Z6KernelP4NodePiPbS2_S2_S1_i'...
GPGPU-Sim PTX: Finding immediate dominators for '_Z6KernelP4NodePiPbS2_S2_S1_i'...
GPGPU-Sim PTX: Finding postdominators for '_Z6KernelP4NodePiPbS2_S2_S1_i'...
GPGPU-Sim PTX: Finding immediate postdominators for '_Z6KernelP4NodePiPbS2_S2_S1_i'...
GPGPU-Sim PTX: pre-decoding instructions for '_Z6KernelP4NodePiPbS2_S2_S1_i'...
GPGPU-Sim PTX: reconvergence points for _Z6KernelP4NodePiPbS2_S2_S1_i...
GPGPU-Sim PTX:  1 (potential) branch divergence @  PC=0x030 (_1.ptx:73) @%p1 bra $Lt_0_5122;
GPGPU-Sim PTX:    immediate post dominator      @  PC=0x1c0 (_1.ptx:135) exit;
GPGPU-Sim PTX:  2 (potential) branch divergence @  PC=0x068 (_1.ptx:80) @%p2 bra $Lt_0_5122;
GPGPU-Sim PTX:    immediate post dominator      @  PC=0x1c0 (_1.ptx:135) exit;
GPGPU-Sim PTX:  3 (potential) branch divergence @  PC=0x0c0 (_1.ptx:93) @%p3 bra $Lt_0_5122;
GPGPU-Sim PTX:    immediate post dominator      @  PC=0x1c0 (_1.ptx:135) exit;
GPGPU-Sim PTX:  4 (potential) branch divergence @  PC=0x120 (_1.ptx:108) @%p4 bra $Lt_0_4354;
GPGPU-Sim PTX:    immediate post dominator      @  PC=0x1a0 (_1.ptx:128) add.s32 %r10, %r10, 1;
GPGPU-Sim PTX:  5 (potential) branch divergence @  PC=0x1b8 (_1.ptx:131) @%p5 bra $Lt_0_4098;
GPGPU-Sim PTX:    immediate post dominator      @  PC=0x1c0 (_1.ptx:135) exit;
GPGPU-Sim PTX: ... end of reconvergence points for _Z6KernelP4NodePiPbS2_S2_S1_i
GPGPU-Sim PTX: ... done pre-decoding instructions for '_Z6KernelP4NodePiPbS2_S2_S1_i'.
GPGPU-Sim PTX: instruction assembly for function '_Z7Kernel2PbS_S_S_i'...   done.
GPGPU-Sim PTX: finding reconvergence points for '_Z7Kernel2PbS_S_S_i'...
GPGPU-Sim PTX: Finding dominators for '_Z7Kernel2PbS_S_S_i'...
GPGPU-Sim PTX: Finding immediate dominators for '_Z7Kernel2PbS_S_S_i'...
GPGPU-Sim PTX: Finding postdominators for '_Z7Kernel2PbS_S_S_i'...
GPGPU-Sim PTX: Finding immediate postdominators for '_Z7Kernel2PbS_S_S_i'...
GPGPU-Sim PTX: pre-decoding instructions for '_Z7Kernel2PbS_S_S_i'...
GPGPU-Sim PTX: reconvergence points for _Z7Kernel2PbS_S_S_i...
GPGPU-Sim PTX:  1 (potential) branch divergence @  PC=0x1f8 (_1.ptx:157) @%p1 bra $Lt_1_1794;
GPGPU-Sim PTX:    immediate post dominator      @  PC=0x2a0 (_1.ptx:185) exit;
GPGPU-Sim PTX:  2 (potential) branch divergence @  PC=0x230 (_1.ptx:164) @%p2 bra $Lt_1_1794;
GPGPU-Sim PTX:    immediate post dominator      @  PC=0x2a0 (_1.ptx:185) exit;
GPGPU-Sim PTX: ... end of reconvergence points for _Z7Kernel2PbS_S_S_i
GPGPU-Sim PTX: ... done pre-decoding instructions for '_Z7Kernel2PbS_S_S_i'.
GPGPU-Sim PTX: finished parsing EMBEDDED .ptx file _1.ptx
Adding _cuobjdump_1.ptx with cubin handle 1
GPGPU-Sim PTX: extracting embedded .ptx to temporary file "_ptx_d66VsZ"
Running: cat _ptx_d66VsZ | sed 's/.version 1.5/.version 1.4/' | sed 's/, texmode_independent//' | sed 's/\(\.extern \.const\[1\] .b8 \w\+\)\[\]/\1\[1\]/' | sed 's/const\[.\]/const\[0\]/g' > _ptx2_rKecNQ
GPGPU-Sim PTX: generating ptxinfo using "$CUDA_INSTALL_PATH/bin/ptxas --gpu-name=sm_20 -v _ptx2_rKecNQ --output-file  /dev/null 2> _ptx_d66VsZinfo"
GPGPU-Sim PTX: Kernel '_Z7Kernel2PbS_S_S_i' : regs=12, lmem=0, smem=0, cmem=68
GPGPU-Sim PTX: Kernel '_Z6KernelP4NodePiPbS2_S2_S1_i' : regs=15, lmem=0, smem=0, cmem=84
GPGPU-Sim PTX: removing ptxinfo using "rm -f _ptx_d66VsZ _ptx2_rKecNQ _ptx_d66VsZinfo"
GPGPU-Sim PTX: loading globals with explicit initializers... 
GPGPU-Sim PTX: finished loading globals (0 bytes total).
GPGPU-Sim PTX: loading constants with explicit initializers...  done.
GPGPU-Sim PTX: __cudaRegisterFunction _Z6KernelP4NodePiPbS2_S2_S1_i : hostFun 0x0x40169c, fat_cubin_handle = 1
Input file: ./data/graph32k500kedges_SV.txt
Reading File
Read File
Copied Everything to GPU memory

GPGPU-Sim PTX: cudaLaunch for 0x0x40169c (mode=performance simulation) on stream 0
GPGPU-Sim PTX: pushing kernel '_Z6KernelP4NodePiPbS2_S2_S1_i' to stream 0, gridDim= (63,1,1) blockDim = (512,1,1) 
kernel '_Z6KernelP4NodePiPbS2_S2_S1_i' transfer to GPU hardware scheduler
GPGPU-Sim uArch: Shader 1 bind to kernel 1 '_Z6KernelP4NodePiPbS2_S2_S1_i'
GPGPU-Sim uArch: CTA/core = 3, limited by: threads
GPGPU-Sim uArch: core:  1, cta: 0 initialized @(1,0)
GPGPU-Sim uArch: Shader 2 bind to kernel 1 '_Z6KernelP4NodePiPbS2_S2_S1_i'
GPGPU-Sim uArch: core:  2, cta: 0 initialized @(1,0)
GPGPU-Sim uArch: Shader 3 bind to kernel 1 '_Z6KernelP4NodePiPbS2_S2_S1_i'
GPGPU-Sim uArch: core:  3, cta: 0 initialized @(1,0)
GPGPU-Sim uArch: Shader 4 bind to kernel 1 '_Z6KernelP4NodePiPbS2_S2_S1_i'
GPGPU-Sim uArch: core:  4, cta: 0 initialized @(1,0)
GPGPU-Sim uArch: Shader 5 bind to kernel 1 '_Z6KernelP4NodePiPbS2_S2_S1_i'
GPGPU-Sim uArch: core:  5, cta: 0 initialized @(1,0)
GPGPU-Sim uArch: Shader 6 bind to kernel 1 '_Z6KernelP4NodePiPbS2_S2_S1_i'
GPGPU-Sim uArch: core:  6, cta: 0 initialized @(1,0)
GPGPU-Sim uArch: Shader 7 bind to kernel 1 '_Z6KernelP4NodePiPbS2_S2_S1_i'
GPGPU-Sim uArch: core:  7, cta: 0 initialized @(1,0)
GPGPU-Sim uArch: Shader 8 bind to kernel 1 '_Z6KernelP4NodePiPbS2_S2_S1_i'
GPGPU-Sim uArch: core:  8, cta: 0 initialized @(1,0)
GPGPU-Sim uArch: Shader 9 bind to kernel 1 '_Z6KernelP4NodePiPbS2_S2_S1_i'
GPGPU-Sim uArch: core:  9, cta: 0 initialized @(1,0)
GPGPU-Sim uArch: Shader 10 bind to kernel 1 '_Z6KernelP4NodePiPbS2_S2_S1_i'
GPGPU-Sim uArch: core: 10, cta: 0 initialized @(1,0)
GPGPU-Sim uArch: Shader 11 bind to kernel 1 '_Z6KernelP4NodePiPbS2_S2_S1_i'
GPGPU-Sim uArch: core: 11, cta: 0 initialized @(1,0)
GPGPU-Sim uArch: Shader 12 bind to kernel 1 '_Z6KernelP4NodePiPbS2_S2_S1_i'
GPGPU-Sim uArch: core: 12, cta: 0 initialized @(1,0)
GPGPU-Sim uArch: Shader 13 bind to kernel 1 '_Z6KernelP4NodePiPbS2_S2_S1_i'
GPGPU-Sim uArch: core: 13, cta: 0 initialized @(1,0)
GPGPU-Sim uArch: Shader 14 bind to kernel 1 '_Z6KernelP4NodePiPbS2_S2_S1_i'
GPGPU-Sim uArch: core: 14, cta: 0 initialized @(1,0)
GPGPU-Sim uArch: Shader 0 bind to kernel 1 '_Z6KernelP4NodePiPbS2_S2_S1_i'
GPGPU-Sim uArch: core:  0, cta: 0 initialized @(1,0)
GPGPU-Sim uArch: core:  1, cta: 1 initialized @(2,0)
GPGPU-Sim uArch: core:  2, cta: 1 initialized @(2,0)
GPGPU-Sim uArch: core:  3, cta: 1 initialized @(2,0)
GPGPU-Sim uArch: core:  4, cta: 1 initialized @(2,0)
GPGPU-Sim uArch: core:  5, cta: 1 initialized @(2,0)
GPGPU-Sim uArch: core:  6, cta: 1 initialized @(2,0)
GPGPU-Sim uArch: core:  7, cta: 1 initialized @(2,0)
GPGPU-Sim uArch: core:  8, cta: 1 initialized @(2,0)
GPGPU-Sim uArch: core:  9, cta: 1 initialized @(2,0)
GPGPU-Sim uArch: core: 10, cta: 1 initialized @(2,0)
GPGPU-Sim uArch: core: 11, cta: 1 initialized @(2,0)
GPGPU-Sim uArch: core: 12, cta: 1 initialized @(2,0)
GPGPU-Sim uArch: core: 13, cta: 1 initialized @(2,0)
GPGPU-Sim uArch: core: 14, cta: 1 initialized @(2,0)
GPGPU-Sim uArch: core:  0, cta: 1 initialized @(2,0)
GPGPU-Sim uArch: core:  1, cta: 2 initialized @(3,0)
GPGPU-Sim uArch: core:  2, cta: 2 initialized @(3,0)
GPGPU-Sim uArch: core:  3, cta: 2 initialized @(3,0)
GPGPU-Sim uArch: core:  4, cta: 2 initialized @(3,0)
GPGPU-Sim uArch: core:  5, cta: 2 initialized @(3,0)
GPGPU-Sim uArch: core:  6, cta: 2 initialized @(3,0)
GPGPU-Sim uArch: core:  7, cta: 2 initialized @(3,0)
GPGPU-Sim uArch: core:  8, cta: 2 initialized @(3,0)
GPGPU-Sim uArch: core:  9, cta: 2 initialized @(3,0)
GPGPU-Sim uArch: core: 10, cta: 2 initialized @(3,0)
GPGPU-Sim uArch: core: 11, cta: 2 initialized @(3,0)
GPGPU-Sim uArch: core: 12, cta: 2 initialized @(3,0)
GPGPU-Sim uArch: core: 13, cta: 2 initialized @(3,0)
GPGPU-Sim uArch: core: 14, cta: 2 initialized @(3,0)
GPGPU-Sim uArch: core:  0, cta: 2 initialized @(3,0)
GPGPU-Sim PTX: 100000 instructions simulated : ctaid=(22,0,0) tid=(447,0,0)
GPGPU-Sim uArch: cycles simulated: 500  inst.: 92000 (ipc=184.0) sim_rate=92000 (inst/sec) elapsed = 0:0:00:01 / Tue Apr 16 16:45:34 2019
GPGPU-Sim PTX: 200000 instructions simulated : ctaid=(40,0,0) tid=(511,0,0)
GPGPU-Sim PTX: 300000 instructions simulated : ctaid=(36,0,0) tid=(445,0,0)
GPGPU-Sim uArch: Shader 3 finished CTA #0 (1264,0), 2 CTAs running
GPGPU-Sim uArch: core:  3, cta: 0 initialized @(1265,0)
GPGPU-Sim uArch: Shader 2 finished CTA #0 (1274,0), 2 CTAs running
GPGPU-Sim uArch: core:  2, cta: 0 initialized @(1275,0)
GPGPU-Sim uArch: Shader 0 finished CTA #0 (1277,0), 2 CTAs running
GPGPU-Sim uArch: core:  0, cta: 0 initialized @(1278,0)
GPGPU-Sim uArch: Shader 3 finished CTA #1 (1284,0), 2 CTAs running
GPGPU-Sim uArch: core:  3, cta: 1 initialized @(1285,0)
GPGPU-Sim uArch: Shader 0 finished CTA #1 (1294,0), 2 CTAs running
GPGPU-Sim uArch: Shader 0 finished CTA #2 (1294,0), 1 CTAs running
GPGPU-Sim uArch: core:  0, cta: 1 initialized @(1295,0)
GPGPU-Sim uArch: core:  0, cta: 2 initialized @(1296,0)
GPGPU-Sim uArch: Shader 4 finished CTA #0 (1296,0), 2 CTAs running
GPGPU-Sim uArch: Shader 4 finished CTA #1 (1296,0), 1 CTAs running
GPGPU-Sim uArch: Shader 5 finished CTA #0 (1296,0), 2 CTAs running
GPGPU-Sim uArch: core:  4, cta: 0 initialized @(1297,0)
GPGPU-Sim uArch: core:  5, cta: 0 initialized @(1297,0)
GPGPU-Sim uArch: core:  4, cta: 1 initialized @(1298,0)
GPGPU-Sim uArch: Shader 2 finished CTA #1 (1298,0), 2 CTAs running
GPGPU-Sim uArch: core:  2, cta: 1 initialized @(1299,0)
GPGPU-Sim uArch: Shader 6 finished CTA #0 (1301,0), 2 CTAs running
GPGPU-Sim uArch: core:  6, cta: 0 initialized @(1302,0)
GPGPU-Sim uArch: Shader 1 finished CTA #1 (1303,0), 2 CTAs running
GPGPU-Sim uArch: core:  1, cta: 1 initialized @(1304,0)
GPGPU-Sim uArch: Shader 11 finished CTA #0 (1315,0), 2 CTAs running
GPGPU-Sim uArch: core: 11, cta: 0 initialized @(1316,0)
GPGPU-Sim uArch: Shader 5 finished CTA #1 (1316,0), 2 CTAs running
GPGPU-Sim uArch: core:  5, cta: 1 initialized @(1317,0)
GPGPU-Sim uArch: Shader 6 finished CTA #1 (1326,0), 2 CTAs running
GPGPU-Sim uArch: core:  6, cta: 1 initialized @(1327,0)
GPGPU-Sim uArch: Shader 9 finished CTA #0 (1328,0), 2 CTAs running
GPGPU-Sim uArch: core:  9, cta: 0 initialized @(1329,0)
GPGPU-Sim uArch: Shader 7 finished CTA #0 (1335,0), 2 CTAs running
GPGPU-Sim uArch: Shader 7 finished CTA #1 (1335,0), 1 CTAs running
GPGPU-Sim uArch: Shader 8 finished CTA #0 (1335,0), 2 CTAs running
GPGPU-Sim uArch: Shader 8 finished CTA #1 (1335,0), 1 CTAs running
GPGPU-Sim uArch: core:  7, cta: 0 initialized @(1336,0)
GPGPU-Sim uArch: core:  8, cta: 0 initialized @(1336,0)
GPGPU-Sim uArch: Shader 9 finished CTA #1 (1346,0), 2 CTAs running
GPGPU-Sim uArch: Shader 12 finished CTA #0 (1348,0), 2 CTAs running
GPGPU-Sim uArch: Shader 11 finished CTA #1 (1353,0), 2 CTAs running
GPGPU-Sim uArch: Shader 10 finished CTA #0 (1358,0), 2 CTAs running
GPGPU-Sim uArch: Shader 10 finished CTA #1 (1358,0), 1 CTAs running
GPGPU-Sim uArch: Shader 12 finished CTA #1 (1364,0), 1 CTAs running
GPGPU-Sim uArch: Shader 13 finished CTA #0 (1364,0), 2 CTAs running
GPGPU-Sim uArch: Shader 13 finished CTA #1 (1370,0), 1 CTAs running
GPGPU-Sim uArch: Shader 14 finished CTA #0 (1370,0), 2 CTAs running
GPGPU-Sim uArch: Shader 13 finished CTA #2 (1371,0), 0 CTAs running
GPGPU-Sim uArch: Shader 13 empty (release kernel 1 '_Z6KernelP4NodePiPbS2_S2_S1_i').
GPGPU-Sim uArch: Shader 14 finished CTA #1 (1372,0), 1 CTAs running
GPGPU-Sim uArch: Shader 11 finished CTA #2 (1373,0), 1 CTAs running
GPGPU-Sim uArch: Shader 10 finished CTA #2 (1374,0), 0 CTAs running
GPGPU-Sim uArch: Shader 10 empty (release kernel 1 '_Z6KernelP4NodePiPbS2_S2_S1_i').
GPGPU-Sim uArch: Shader 4 finished CTA #2 (1375,0), 2 CTAs running
GPGPU-Sim uArch: Shader 12 finished CTA #2 (1377,0), 0 CTAs running
GPGPU-Sim uArch: Shader 12 empty (release kernel 1 '_Z6KernelP4NodePiPbS2_S2_S1_i').
GPGPU-Sim uArch: Shader 14 finished CTA #2 (1377,0), 0 CTAs running
GPGPU-Sim uArch: Shader 14 empty (release kernel 1 '_Z6KernelP4NodePiPbS2_S2_S1_i').
GPGPU-Sim uArch: Shader 7 finished CTA #2 (1383,0), 1 CTAs running
GPGPU-Sim uArch: Shader 8 finished CTA #2 (1383,0), 1 CTAs running
GPGPU-Sim uArch: Shader 2 finished CTA #2 (1394,0), 2 CTAs running
GPGPU-Sim uArch: Shader 5 finished CTA #2 (1396,0), 2 CTAs running
GPGPU-Sim uArch: Shader 1 finished CTA #2 (1399,0), 2 CTAs running
GPGPU-Sim uArch: Shader 6 finished CTA #2 (1405,0), 2 CTAs running
GPGPU-Sim PTX: 400000 instructions simulated : ctaid=(61,0,0) tid=(345,0,0)
GPGPU-Sim uArch: Shader 9 finished CTA #2 (1461,0), 1 CTAs running
GPGPU-Sim uArch: Shader 3 finished CTA #2 (1486,0), 2 CTAs running
GPGPU-Sim uArch: cycles simulated: 1500  inst.: 404420 (ipc=269.6) sim_rate=202210 (inst/sec) elapsed = 0:0:00:02 / Tue Apr 16 16:45:35 2019
GPGPU-Sim uArch: Shader 8 finished CTA #0 (1725,0), 0 CTAs running
GPGPU-Sim uArch: Shader 8 empty (release kernel 1 '_Z6KernelP4NodePiPbS2_S2_S1_i').
GPGPU-Sim uArch: Shader 1 finished CTA #1 (1730,0), 1 CTAs running
GPGPU-Sim uArch: Shader 11 finished CTA #0 (1742,0), 0 CTAs running
GPGPU-Sim uArch: Shader 11 empty (release kernel 1 '_Z6KernelP4NodePiPbS2_S2_S1_i').
GPGPU-Sim uArch: Shader 7 finished CTA #0 (1749,0), 0 CTAs running
GPGPU-Sim uArch: Shader 7 empty (release kernel 1 '_Z6KernelP4NodePiPbS2_S2_S1_i').
GPGPU-Sim uArch: Shader 3 finished CTA #0 (1762,0), 1 CTAs running
GPGPU-Sim uArch: Shader 9 finished CTA #0 (1762,0), 0 CTAs running
GPGPU-Sim uArch: Shader 9 empty (release kernel 1 '_Z6KernelP4NodePiPbS2_S2_S1_i').
GPGPU-Sim uArch: Shader 4 finished CTA #0 (1773,0), 1 CTAs running
GPGPU-Sim uArch: Shader 6 finished CTA #0 (1786,0), 1 CTAs running
GPGPU-Sim uArch: Shader 2 finished CTA #0 (1788,0), 1 CTAs running
GPGPU-Sim uArch: Shader 0 finished CTA #0 (1790,0), 2 CTAs running
GPGPU-Sim uArch: Shader 5 finished CTA #0 (1791,0), 1 CTAs running
GPGPU-Sim uArch: Shader 3 finished CTA #1 (1808,0), 0 CTAs running
GPGPU-Sim uArch: Shader 3 empty (release kernel 1 '_Z6KernelP4NodePiPbS2_S2_S1_i').
GPGPU-Sim uArch: Shader 4 finished CTA #1 (1818,0), 0 CTAs running
GPGPU-Sim uArch: Shader 4 empty (release kernel 1 '_Z6KernelP4NodePiPbS2_S2_S1_i').
GPGPU-Sim uArch: Shader 5 finished CTA #1 (1821,0), 0 CTAs running
GPGPU-Sim uArch: Shader 5 empty (release kernel 1 '_Z6KernelP4NodePiPbS2_S2_S1_i').
GPGPU-Sim uArch: Shader 0 finished CTA #1 (1825,0), 1 CTAs running
GPGPU-Sim uArch: Shader 6 finished CTA #1 (1830,0), 0 CTAs running
GPGPU-Sim uArch: Shader 6 empty (release kernel 1 '_Z6KernelP4NodePiPbS2_S2_S1_i').
GPGPU-Sim uArch: Shader 0 finished CTA #2 (1896,0), 0 CTAs running
GPGPU-Sim uArch: Shader 0 empty (release kernel 1 '_Z6KernelP4NodePiPbS2_S2_S1_i').
GPGPU-Sim uArch: Shader 2 finished CTA #1 (2051,0), 0 CTAs running
GPGPU-Sim uArch: Shader 2 empty (release kernel 1 '_Z6KernelP4NodePiPbS2_S2_S1_i').
GPGPU-Sim uArch: Shader 1 finished CTA #0 (8538,0), 0 CTAs running
GPGPU-Sim uArch: Shader 1 empty (release kernel 1 '_Z6KernelP4NodePiPbS2_S2_S1_i').
GPGPU-Sim uArch: GPU detected kernel '_Z6KernelP4NodePiPbS2_S2_S1_i' finished on shader 1.
kernel_name = _Z6KernelP4NodePiPbS2_S2_S1_i 
kernel_launch_uid = 1 
gpu_sim_cycle = 8539
gpu_sim_insn = 450436
gpu_ipc =      52.7504
gpu_tot_sim_cycle = 8539
gpu_tot_sim_insn = 450436
gpu_tot_ipc =      52.7504
gpu_tot_issued_cta = 0
gpu_stall_dramfull = 309
gpu_stall_icnt2sh    = 157
gpu_total_sim_rate=225218

========= Core cache stats =========
L1I_cache:
	L1I_total_cache_accesses = 10197
	L1I_total_cache_misses = 941
	L1I_total_cache_miss_rate = 0.0923
	L1I_total_cache_pending_hits = 0
	L1I_total_cache_reservation_fails = 4706
L1D_cache:
	L1D_cache_core[0]: Access = 96, Miss = 24, Miss_rate = 0.250, Pending_hits = 72, Reservation_fails = 0
	L1D_cache_core[1]: Access = 172, Miss = 64, Miss_rate = 0.372, Pending_hits = 49, Reservation_fails = 263
	L1D_cache_core[2]: Access = 80, Miss = 20, Miss_rate = 0.250, Pending_hits = 60, Reservation_fails = 433
	L1D_cache_core[3]: Access = 80, Miss = 20, Miss_rate = 0.250, Pending_hits = 60, Reservation_fails = 211
	L1D_cache_core[4]: Access = 80, Miss = 20, Miss_rate = 0.250, Pending_hits = 60, Reservation_fails = 197
	L1D_cache_core[5]: Access = 80, Miss = 20, Miss_rate = 0.250, Pending_hits = 60, Reservation_fails = 200
	L1D_cache_core[6]: Access = 80, Miss = 20, Miss_rate = 0.250, Pending_hits = 60, Reservation_fails = 189
	L1D_cache_core[7]: Access = 64, Miss = 16, Miss_rate = 0.250, Pending_hits = 48, Reservation_fails = 218
	L1D_cache_core[8]: Access = 56, Miss = 14, Miss_rate = 0.250, Pending_hits = 42, Reservation_fails = 198
	L1D_cache_core[9]: Access = 64, Miss = 16, Miss_rate = 0.250, Pending_hits = 48, Reservation_fails = 217
	L1D_cache_core[10]: Access = 48, Miss = 12, Miss_rate = 0.250, Pending_hits = 36, Reservation_fails = 207
	L1D_cache_core[11]: Access = 64, Miss = 16, Miss_rate = 0.250, Pending_hits = 48, Reservation_fails = 184
	L1D_cache_core[12]: Access = 48, Miss = 12, Miss_rate = 0.250, Pending_hits = 36, Reservation_fails = 212
	L1D_cache_core[13]: Access = 48, Miss = 12, Miss_rate = 0.250, Pending_hits = 36, Reservation_fails = 0
	L1D_cache_core[14]: Access = 48, Miss = 12, Miss_rate = 0.250, Pending_hits = 36, Reservation_fails = 126
	L1D_total_cache_accesses = 1108
	L1D_total_cache_misses = 298
	L1D_total_cache_miss_rate = 0.2690
	L1D_total_cache_pending_hits = 751
	L1D_total_cache_reservation_fails = 2855
	L1D_cache_data_port_util = 0.002
	L1D_cache_fill_port_util = 0.008
L1C_cache:
	L1C_total_cache_accesses = 2041
	L1C_total_cache_misses = 480
	L1C_total_cache_miss_rate = 0.2352
	L1C_total_cache_pending_hits = 0
	L1C_total_cache_reservation_fails = 3411
L1T_cache:
	L1T_total_cache_accesses = 0
	L1T_total_cache_misses = 0
	L1T_total_cache_pending_hits = 0
	L1T_total_cache_reservation_fails = 0

Total_core_cache_stats:
	Total_core_cache_stats_breakdown[GLOBAL_ACC_R][HIT] = 58
	Total_core_cache_stats_breakdown[GLOBAL_ACC_R][HIT_RESERVED] = 751
	Total_core_cache_stats_breakdown[GLOBAL_ACC_R][MISS] = 268
	Total_core_cache_stats_breakdown[GLOBAL_ACC_R][RESERVATION_FAIL] = 2855
	Total_core_cache_stats_breakdown[CONST_ACC_R][HIT] = 1561
	Total_core_cache_stats_breakdown[CONST_ACC_R][MISS] = 480
	Total_core_cache_stats_breakdown[CONST_ACC_R][RESERVATION_FAIL] = 3411
	Total_core_cache_stats_breakdown[GLOBAL_ACC_W][HIT] = 1
	Total_core_cache_stats_breakdown[GLOBAL_ACC_W][MISS] = 30
	Total_core_cache_stats_breakdown[INST_ACC_R][HIT] = 9256
	Total_core_cache_stats_breakdown[INST_ACC_R][MISS] = 941
	Total_core_cache_stats_breakdown[INST_ACC_R][RESERVATION_FAIL] = 4706
Shader 0 warp_id issue ditsribution:
warp_id:
0, 1, 2, 3, 4, 5, 6, 7, 8, 9, 10, 11, 12, 13, 14, 15, 16, 17, 18, 19, 20, 21, 22, 23, 24, 25, 26, 27, 28, 29, 30, 31, 32, 33, 34, 35, 36, 37, 38, 39, 40, 41, 42, 43, 44, 45, 46, 47, 
distro:
30, 30, 30, 30, 30, 30, 30, 30, 30, 30, 30, 30, 30, 30, 30, 30, 30, 30, 30, 30, 30, 30, 30, 30, 30, 30, 30, 30, 30, 30, 30, 30, 30, 30, 30, 30, 30, 30, 30, 30, 30, 30, 30, 30, 30, 30, 30, 30, 
gpgpu_n_tot_thrd_icount = 495040
gpgpu_n_tot_w_icount = 15470
gpgpu_n_stall_shd_mem = 6266
gpgpu_n_mem_read_local = 0
gpgpu_n_mem_write_local = 0
gpgpu_n_mem_read_global = 268
gpgpu_n_mem_write_global = 31
gpgpu_n_mem_texture = 0
gpgpu_n_mem_const = 15
gpgpu_n_load_insn  = 32077
gpgpu_n_store_insn = 31
gpgpu_n_shmem_insn = 0
gpgpu_n_tex_insn = 0
gpgpu_n_const_mem_insn = 0
gpgpu_n_param_mem_insn = 64289
gpgpu_n_shmem_bkconflict = 0
gpgpu_n_cache_bkconflict = 0
gpgpu_n_intrawarp_mshr_merge = 0
gpgpu_n_cmem_portconflict = 3411
gpgpu_stall_shd_mem[c_mem][bk_conf] = 3411
gpgpu_stall_shd_mem[c_mem][mshr_rc] = 0
gpgpu_stall_shd_mem[c_mem][icnt_rc] = 0
gpgpu_stall_shd_mem[c_mem][data_port_stall] = 0
gpgpu_stall_shd_mem[t_mem][mshr_rc] = 0
gpgpu_stall_shd_mem[t_mem][icnt_rc] = 0
gpgpu_stall_shd_mem[t_mem][data_port_stall] = 0
gpgpu_stall_shd_mem[s_mem][bk_conf] = 0
gpgpu_stall_shd_mem[gl_mem][bk_conf] = 0
gpgpu_stall_shd_mem[gl_mem][coal_stall] = 2855
gpgpu_stall_shd_mem[gl_mem][data_port_stall] = 0
gpgpu_stall_shd_mem[g_mem_ld][mshr_rc] = 0
gpgpu_stall_shd_mem[g_mem_ld][icnt_rc] = 0
gpgpu_stall_shd_mem[g_mem_ld][wb_icnt_rc] = 0
gpgpu_stall_shd_mem[g_mem_ld][wb_rsrv_fail] = 0
gpgpu_stall_shd_mem[g_mem_st][mshr_rc] = 0
gpgpu_stall_shd_mem[g_mem_st][icnt_rc] = 0
gpgpu_stall_shd_mem[g_mem_st][wb_icnt_rc] = 0
gpgpu_stall_shd_mem[g_mem_st][wb_rsrv_fail] = 0
gpgpu_stall_shd_mem[l_mem_ld][mshr_rc] = 0
gpgpu_stall_shd_mem[l_mem_ld][icnt_rc] = 0
gpgpu_stall_shd_mem[l_mem_ld][wb_icnt_rc] = 0
gpgpu_stall_shd_mem[l_mem_ld][wb_rsrv_fail] = 0
gpgpu_stall_shd_mem[l_mem_st][mshr_rc] = 0
gpgpu_stall_shd_mem[l_mem_st][icnt_rc] = 0
gpgpu_stall_shd_mem[l_mem_ld][wb_icnt_rc] = 0
gpgpu_stall_shd_mem[l_mem_ld][wb_rsrv_fail] = 0
gpu_reg_bank_conflict_stalls = 0
Warp Occupancy Distribution:
Stall:12119	W0_Idle:18009	W0_Scoreboard:18910	W1:406	W2:0	W3:0	W4:0	W5:0	W6:0	W7:0	W8:0	W9:0	W10:0	W11:0	W12:0	W13:0	W14:0	W15:0	W16:0	W17:0	W18:0	W19:0	W20:0	W21:0	W22:0	W23:0	W24:0	W25:0	W26:0	W27:0	W28:0	W29:0	W30:0	W31:0	W32:15064
traffic_breakdown_coretomem[CONST_ACC_R] = 120 {8:15,}
traffic_breakdown_coretomem[GLOBAL_ACC_R] = 2144 {8:268,}
traffic_breakdown_coretomem[GLOBAL_ACC_W] = 1240 {40:31,}
traffic_breakdown_coretomem[INST_ACC_R] = 256 {8:32,}
traffic_breakdown_memtocore[CONST_ACC_R] = 1080 {72:15,}
traffic_breakdown_memtocore[GLOBAL_ACC_R] = 36448 {136:268,}
traffic_breakdown_memtocore[GLOBAL_ACC_W] = 248 {8:31,}
traffic_breakdown_memtocore[INST_ACC_R] = 4352 {136:32,}
maxmrqlatency = 25 
maxdqlatency = 0 
maxmflatency = 380 
averagemflatency = 263 
max_icnt2mem_latency = 36 
max_icnt2sh_latency = 8538 
mrq_lat_table:253 	12 	35 	24 	6 	0 	0 	0 	0 	0 	0 	0 	0 	0 	0 	0 	0 	0 	0 	0 	0 	0 	0 	0 	0 	0 	0 	0 	0 	0 	0 	0 	
dq_lat_table:0 	0 	0 	0 	0 	0 	0 	0 	0 	0 	0 	0 	0 	0 	0 	0 	0 	0 	0 	0 	0 	0 	0 	0 	0 	0 	0 	0 	0 	0 	0 	0 	
mf_lat_table:0 	0 	0 	0 	0 	0 	0 	37 	277 	0 	0 	0 	0 	0 	0 	0 	0 	0 	0 	0 	0 	0 	0 	0 	0 	0 	0 	0 	0 	0 	0 	0 	
icnt2mem_lat_table:0 	0 	0 	335 	8 	3 	0 	0 	0 	0 	0 	0 	0 	0 	0 	0 	0 	0 	0 	0 	0 	0 	0 	0 	
icnt2sh_lat_table:0 	0 	0 	228 	54 	1 	0 	0 	0 	0 	1 	6 	22 	2 	0 	0 	0 	0 	0 	0 	0 	0 	0 	0 	
mf_lat_pw_table:0 	0 	0 	0 	0 	0 	0 	12 	4 	0 	0 	0 	0 	0 	0 	0 	0 	0 	0 	0 	0 	0 	0 	0 	0 	0 	0 	0 	0 	0 	0 	0 	
maximum concurrent accesses to same row:
dram[0]:         1         0         0         0         0         0         0         0         0         0         0         0         0         0         0         0 
dram[1]:         0         0         0         0         0         0         0         0         0         0         0         0         0         0         0         0 
dram[2]:         0         0         0         0         0         1         0         0         0         0         0         0         0         0         0         0 
dram[3]:         0         0         0         0         0         0         0         0         0         0         0         0         0         0         0         0 
dram[4]:         0         0         0         0         0         0         0         0         0         0         0         0         0         0         0         0 
dram[5]:         0         0         0         0         0         0         0         0         0         0         0         0         0         0         0         0 
maximum service time to same row:
dram[0]:       634         0       949       951      1232      1697      2771      5604         0      7710      8507         0         0         0      1919         0 
dram[1]:      1194         0       915       938      1029      1693      4088         0         0         0      3069         0         0         0         0         0 
dram[2]:         0         0       938       954      1066      1550         0      3685      7316         0         0         0         0         0         0         0 
dram[3]:         0         0       916       935      1650      1660         0      3282         0      6785         0      5999         0         0         0         0 
dram[4]:         0         0       943       963      1659      1669         0      2465      4019         0         0         0         0         0         0         0 
dram[5]:         0         0       925       919      1688      1660         0      7779         0         0      8113      3616         0         0         0         0 
average row accesses per activate:
dram[0]:  1.000000      -nan 14.000000 14.000000  8.000000 11.000000  4.000000  2.000000      -nan  2.000000  2.000000      -nan      -nan      -nan  1.000000      -nan 
dram[1]:  2.000000      -nan 14.000000 14.000000 10.000000  9.000000  4.000000      -nan      -nan      -nan  4.000000      -nan      -nan      -nan      -nan      -nan 
dram[2]:      -nan      -nan 14.000000 14.000000  8.000000  6.000000      -nan  3.000000  2.000000      -nan      -nan      -nan      -nan      -nan      -nan      -nan 
dram[3]:      -nan      -nan 14.000000 16.000000 10.000000  6.000000      -nan  2.000000      -nan  2.000000      -nan  2.000000      -nan      -nan      -nan      -nan 
dram[4]:      -nan      -nan 14.000000 16.000000 11.000000  7.000000      -nan  1.000000  2.000000      -nan      -nan      -nan      -nan      -nan      -nan      -nan 
dram[5]:      -nan      -nan 14.000000 16.000000 10.000000  9.000000      -nan  1.000000      -nan      -nan  2.000000  4.000000      -nan      -nan      -nan      -nan 
average row locality = 330/46 = 7.173913
number of total memory accesses made:
dram[0]:         0         0         0         0         0         0         0         0         0         0         0         0         0         0         0         0 
dram[1]:         0         0         0         0         0         0         0         0         0         0         0         0         0         0         0         0 
dram[2]:         0         0         0         0         0         0         0         0         0         0         0         0         0         0         0         0 
dram[3]:         0         0         0         0         0         0         0         0         0         0         0         0         0         0         0         0 
dram[4]:         0         0         0         0         0         0         0         0         0         0         0         0         0         0         0         0 
dram[5]:         0         0         0         0         0         0         0         0         0         0         0         0         0         0         0         0 
total accesses: 0
min_bank_accesses = 0!
min_chip_accesses = 0!
number of total read accesses:
dram[0]:         3         0        14        14         8         9         3         1         0         1         1         0         0         0         1         0 
dram[1]:         2         0        14        14         9         8         3         0         0         0         2         0         0         0         0         0 
dram[2]:         0         0        14        14         7        10         0         2         1         0         0         0         0         0         0         0 
dram[3]:         0         0        14        16         8         6         0         2         0         1         0         1         0         0         0         0 
dram[4]:         0         0        14        16         9         7         0         1         1         0         0         0         0         0         0         0 
dram[5]:         0         0        14        16         8         8         0         1         0         0         1         2         0         0         0         0 
total reads: 301
min_bank_accesses = 0!
chip skew: 55/48 = 1.15
number of total write accesses:
dram[0]:         0         0         0         0         0         2         1         1         0         1         1         0         0         0         0         0 
dram[1]:         0         0         0         0         1         1         1         0         0         0         2         0         0         0         0         0 
dram[2]:         0         0         0         0         1         2         0         1         1         0         0         0         0         0         0         0 
dram[3]:         0         0         0         0         2         0         0         0         0         1         0         1         0         0         0         0 
dram[4]:         0         0         0         0         2         0         0         0         1         0         0         0         0         0         0         0 
dram[5]:         0         0         0         0         2         1         0         0         0         0         1         2         0         0         0         0 
total reads: 29
min_bank_accesses = 0!
chip skew: 6/3 = 2.00
average mf latency per bank:
dram[0]:       1314    none         261       269       263       218       193       125    none         125       125    none      none      none         268    none  
dram[1]:          0    none         292       265       234       233       193    none      none      none         124    none      none      none      none      none  
dram[2]:     none      none         260       262       229       230    none         171       125    none      none      none      none      none      none      none  
dram[3]:     none      none         264       277       214       268    none         263    none         125    none         126    none      none      none      none  
dram[4]:     none      none         261       263       225       260    none         268       126    none      none      none      none      none      none      none  
dram[5]:     none      none         263       266       212       236    none         268    none      none         125       124    none      none      none      none  
maximum mf latency per bank:
dram[0]:        283         0       272       290       271       290       268       251         0       251       251         0         0         0       268         0
dram[1]:          0         0       380       271       268       273       268         0         0         0       252         0         0         0         0         0
dram[2]:          0         0       268       278       271       279         0       268       251         0         0         0         0         0         0         0
dram[3]:          0         0       274       283       287       286         0       268         0       251         0       252         0         0         0         0
dram[4]:          0         0       271       272       271       268         0       268       252         0         0         0         0         0         0         0
dram[5]:          0         0       277       277       280       281         0       268         0         0       251       252         0         0         0         0

Number of Memory Banks Accessed per Memory Operation per Warp (from 0):
0	0	0	0	0	0	0	0	0	0	0	0	0	0	0	0	0	0	0	0	0	0	0	0	0	0	0	0	0	0	0	0	0	0	0	0	0	0	0	0	0	0	0	0	0	0	0	0	0	0	0	0	0	0	0	0	0	0	0	0	0	0	0	0	0	0	0	0	0	0	0	0	0	0	0	0	0	0	0	0	0	0	0	0	0	0	0	0	0	0	0	0	0	0	0	0	
Average # of Memory Banks Accessed per Memory Operation per Warp=-nan

position of mrq chosen
0	0	0	0	0	0	0	0	0	0	0	0	0	0	0	0	

average position of mrq chosen = -nan
Memory Partition 0: 
Cache L2_bank_000:
MSHR contents

Cache L2_bank_001:
MSHR contents

In Dram Latency Queue (total = 0): 
DRAM[0]: 16 bks, busW=4 BL=8 CL=12, tRRD=2 tCCD=6, tRCD=12 tRAS=28 tRP=12 tRC=40
n_cmd=11271 n_nop=11141 n_act=12 n_pre=2 n_req=61 n_rd=110 n_write=6 bw_util=0.02058
n_activity=756 dram_eff=0.3069
bk0: 6a 11196i bk1: 0a 11270i bk2: 28a 11179i bk3: 28a 11117i bk4: 16a 11221i bk5: 18a 11173i bk6: 6a 11237i bk7: 2a 11248i bk8: 0a 11270i bk9: 2a 11247i bk10: 2a 11246i bk11: 0a 11269i bk12: 0a 11269i bk13: 0a 11270i bk14: 2a 11256i bk15: 0a 11271i 
dram_util_bins: 0 0 0 0 0 0 0 0 0 0
dram_eff_bins: 0 0 0 0 0 0 0 0 0 0
mrqq: max=3 avg=0.0133972
Memory Partition 1: 
Cache L2_bank_002:
MSHR contents

Cache L2_bank_003:
MSHR contents

In Dram Latency Queue (total = 0): 
DRAM[1]: 16 bks, busW=4 BL=8 CL=12, tRRD=2 tCCD=6, tRCD=12 tRAS=28 tRP=12 tRC=40
n_cmd=11271 n_nop=11155 n_act=7 n_pre=0 n_req=57 n_rd=104 n_write=5 bw_util=0.01934
n_activity=703 dram_eff=0.3101
bk0: 4a 11252i bk1: 0a 11273i bk2: 28a 11188i bk3: 28a 11175i bk4: 18a 11207i bk5: 16a 11210i bk6: 6a 11235i bk7: 0a 11270i bk8: 0a 11270i bk9: 0a 11270i bk10: 4a 11233i bk11: 0a 11269i bk12: 0a 11269i bk13: 0a 11271i bk14: 0a 11271i bk15: 0a 11273i 
dram_util_bins: 0 0 0 0 0 0 0 0 0 0
dram_eff_bins: 0 0 0 0 0 0 0 0 0 0
mrqq: max=2 avg=0.00816254
Memory Partition 2: 
Cache L2_bank_004:
MSHR contents

Cache L2_bank_005:
MSHR contents
MSHR: tag=0x80240c00, atomic=0 1 entries : 0x7fefafc48920 :  mf: uid= 24347, sid01:w00, part=2, addr=0x80240c20, load , size=32, unknown  status = IN_PARTITION_DRAM (8536), 

In Dram Latency Queue (total = 0): 
DRAM[2]: 16 bks, busW=4 BL=8 CL=12, tRRD=2 tCCD=6, tRCD=12 tRAS=28 tRP=12 tRC=40
n_cmd=11271 n_nop=11162 n_act=7 n_pre=1 n_req=53 n_rd=96 n_write=5 bw_util=0.01792
n_activity=671 dram_eff=0.301
bk0: 0a 11272i bk1: 0a 11273i bk2: 28a 11188i bk3: 28a 11164i bk4: 14a 11209i bk5: 20a 11171i bk6: 0a 11270i bk7: 4a 11239i bk8: 2a 11246i bk9: 0a 11268i bk10: 0a 11268i bk11: 0a 11269i bk12: 0a 11269i bk13: 0a 11270i bk14: 0a 11271i bk15: 0a 11272i 
dram_util_bins: 0 0 0 0 0 0 0 0 0 0
dram_eff_bins: 0 0 0 0 0 0 0 0 0 0
mrqq: max=1 avg=0.00514595
Memory Partition 3: 
Cache L2_bank_006:
MSHR contents

Cache L2_bank_007:
MSHR contents

In Dram Latency Queue (total = 0): 
DRAM[3]: 16 bks, busW=4 BL=8 CL=12, tRRD=2 tCCD=6, tRCD=12 tRAS=28 tRP=12 tRC=40
n_cmd=11271 n_nop=11164 n_act=7 n_pre=0 n_req=52 n_rd=96 n_write=4 bw_util=0.01774
n_activity=582 dram_eff=0.3436
bk0: 0a 11272i bk1: 0a 11274i bk2: 28a 11189i bk3: 32a 11134i bk4: 16a 11196i bk5: 12a 11211i bk6: 0a 11272i bk7: 4a 11251i bk8: 0a 11270i bk9: 2a 11247i bk10: 0a 11269i bk11: 2a 11247i bk12: 0a 11268i bk13: 0a 11269i bk14: 0a 11269i bk15: 0a 11271i 
dram_util_bins: 0 0 0 0 0 0 0 0 0 0
dram_eff_bins: 0 0 0 0 0 0 0 0 0 0
mrqq: max=3 avg=0.0162364
Memory Partition 4: 
Cache L2_bank_008:
MSHR contents

Cache L2_bank_009:
MSHR contents

In Dram Latency Queue (total = 0): 
DRAM[4]: 16 bks, busW=4 BL=8 CL=12, tRRD=2 tCCD=6, tRCD=12 tRAS=28 tRP=12 tRC=40
n_cmd=11271 n_nop=11166 n_act=6 n_pre=0 n_req=51 n_rd=96 n_write=3 bw_util=0.01757
n_activity=596 dram_eff=0.3322
bk0: 0a 11272i bk1: 0a 11274i bk2: 28a 11194i bk3: 32a 11158i bk4: 18a 11194i bk5: 14a 11231i bk6: 0a 11271i bk7: 2a 11255i bk8: 2a 11247i bk9: 0a 11268i bk10: 0a 11269i bk11: 0a 11270i bk12: 0a 11270i bk13: 0a 11270i bk14: 0a 11270i bk15: 0a 11271i 
dram_util_bins: 0 0 0 0 0 0 0 0 0 0
dram_eff_bins: 0 0 0 0 0 0 0 0 0 0
mrqq: max=2 avg=0.00514595
Memory Partition 5: 
Cache L2_bank_010:
MSHR contents

Cache L2_bank_011:
MSHR contents

In Dram Latency Queue (total = 0): 
DRAM[5]: 16 bks, busW=4 BL=8 CL=12, tRRD=2 tCCD=6, tRCD=12 tRAS=28 tRP=12 tRC=40
n_cmd=11271 n_nop=11158 n_act=7 n_pre=0 n_req=56 n_rd=100 n_write=6 bw_util=0.01881
n_activity=645 dram_eff=0.3287
bk0: 0a 11271i bk1: 0a 11274i bk2: 28a 11192i bk3: 32a 11128i bk4: 16a 11198i bk5: 16a 11191i bk6: 0a 11269i bk7: 2a 11254i bk8: 0a 11270i bk9: 0a 11271i bk10: 2a 11248i bk11: 4a 11233i bk12: 0a 11269i bk13: 0a 11270i bk14: 0a 11270i bk15: 0a 11270i 
dram_util_bins: 0 0 0 0 0 0 0 0 0 0
dram_eff_bins: 0 0 0 0 0 0 0 0 0 0
mrqq: max=3 avg=0.0126874

========= L2 cache stats =========
L2_cache_bank[0]: Access = 58, Miss = 30, Miss_rate = 0.517, Pending_hits = 6, Reservation_fails = 227
L2_cache_bank[1]: Access = 25, Miss = 25, Miss_rate = 1.000, Pending_hits = 0, Reservation_fails = 0
L2_cache_bank[2]: Access = 44, Miss = 30, Miss_rate = 0.682, Pending_hits = 3, Reservation_fails = 111
L2_cache_bank[3]: Access = 22, Miss = 22, Miss_rate = 1.000, Pending_hits = 0, Reservation_fails = 0
L2_cache_bank[4]: Access = 22, Miss = 22, Miss_rate = 1.000, Pending_hits = 0, Reservation_fails = 0
L2_cache_bank[5]: Access = 27, Miss = 26, Miss_rate = 0.963, Pending_hits = 0, Reservation_fails = 0
L2_cache_bank[6]: Access = 22, Miss = 22, Miss_rate = 1.000, Pending_hits = 0, Reservation_fails = 0
L2_cache_bank[7]: Access = 27, Miss = 26, Miss_rate = 0.963, Pending_hits = 0, Reservation_fails = 0
L2_cache_bank[8]: Access = 25, Miss = 24, Miss_rate = 0.960, Pending_hits = 0, Reservation_fails = 0
L2_cache_bank[9]: Access = 24, Miss = 24, Miss_rate = 1.000, Pending_hits = 0, Reservation_fails = 0
L2_cache_bank[10]: Access = 23, Miss = 23, Miss_rate = 1.000, Pending_hits = 0, Reservation_fails = 0
L2_cache_bank[11]: Access = 27, Miss = 27, Miss_rate = 1.000, Pending_hits = 0, Reservation_fails = 0
L2_total_cache_accesses = 346
L2_total_cache_misses = 301
L2_total_cache_miss_rate = 0.8699
L2_total_cache_pending_hits = 9
L2_total_cache_reservation_fails = 338
L2_total_cache_breakdown:
	L2_cache_stats_breakdown[GLOBAL_ACC_R][HIT] = 1
	L2_cache_stats_breakdown[GLOBAL_ACC_R][MISS] = 267
	L2_cache_stats_breakdown[CONST_ACC_R][HIT] = 11
	L2_cache_stats_breakdown[CONST_ACC_R][HIT_RESERVED] = 3
	L2_cache_stats_breakdown[CONST_ACC_R][MISS] = 1
	L2_cache_stats_breakdown[CONST_ACC_R][RESERVATION_FAIL] = 111
	L2_cache_stats_breakdown[GLOBAL_ACC_W][HIT] = 2
	L2_cache_stats_breakdown[GLOBAL_ACC_W][MISS] = 29
	L2_cache_stats_breakdown[INST_ACC_R][HIT] = 22
	L2_cache_stats_breakdown[INST_ACC_R][HIT_RESERVED] = 6
	L2_cache_stats_breakdown[INST_ACC_R][MISS] = 4
	L2_cache_stats_breakdown[INST_ACC_R][RESERVATION_FAIL] = 227
L2_cache_data_port_util = 0.001
L2_cache_fill_port_util = 0.012

icnt_total_pkts_mem_to_simt=1576
icnt_total_pkts_simt_to_mem=377
LD_mem_lat_dist  0 0 0 0 0 0 0 0 0 0 0 0 0 0 0 0 0 0 0 0 0 0 0 0 0 0 0
ST_mem_lat_dist  0 0 0 0 0 0 0 0 0 0 0 0 0 0 0 0 0 0 0 0 0 0 0 0 0 0 0
----------------------------Interconnect-DETAILS--------------------------------
Class 0:
Packet latency average = 9.47832
	minimum = 6
	maximum = 37
Network latency average = 9.03757
	minimum = 6
	maximum = 34
Slowest packet = 14
Flit latency average = 7.4895
	minimum = 6
	maximum = 34
Slowest flit = 14
Fragmentation average = 0
	minimum = 0
	maximum = 0
Injected packet rate average = 0.00300148
	minimum = 0.00175665 (at node 10)
	maximum = 0.00819768 (at node 1)
Accepted packet rate average = 0.00300148
	minimum = 0.00175665 (at node 10)
	maximum = 0.00819768 (at node 1)
Injected flit rate average = 0.00847094
	minimum = 0.00175665 (at node 10)
	maximum = 0.0295117 (at node 15)
Accepted flit rate average= 0.00847094
	minimum = 0.00269352 (at node 18)
	maximum = 0.0262326 (at node 1)
Injected packet length average = 2.82225
Accepted packet length average = 2.82225
Total in-flight flits = 0 (0 measured)
====== Overall Traffic Statistics ======
====== Traffic class 0 ======
Packet latency average = 9.47832 (1 samples)
	minimum = 6 (1 samples)
	maximum = 37 (1 samples)
Network latency average = 9.03757 (1 samples)
	minimum = 6 (1 samples)
	maximum = 34 (1 samples)
Flit latency average = 7.4895 (1 samples)
	minimum = 6 (1 samples)
	maximum = 34 (1 samples)
Fragmentation average = 0 (1 samples)
	minimum = 0 (1 samples)
	maximum = 0 (1 samples)
Injected packet rate average = 0.00300148 (1 samples)
	minimum = 0.00175665 (1 samples)
	maximum = 0.00819768 (1 samples)
Accepted packet rate average = 0.00300148 (1 samples)
	minimum = 0.00175665 (1 samples)
	maximum = 0.00819768 (1 samples)
Injected flit rate average = 0.00847094 (1 samples)
	minimum = 0.00175665 (1 samples)
	maximum = 0.0295117 (1 samples)
Accepted flit rate average = 0.00847094 (1 samples)
	minimum = 0.00269352 (1 samples)
	maximum = 0.0262326 (1 samples)
Injected packet size average = 2.82225 (1 samples)
Accepted packet size average = 2.82225 (1 samples)
Hops average = 1 (1 samples)
----------------------------END-of-Interconnect-DETAILS-------------------------


gpgpu_simulation_time = 0 days, 0 hrs, 0 min, 2 sec (2 sec)
gpgpu_simulation_rate = 225218 (inst/sec)
gpgpu_simulation_rate = 4269 (cycle/sec)

GPGPU-Sim PTX: cudaLaunch for 0x0x4017d8 (mode=performance simulation) on stream 0
GPGPU-Sim PTX: pushing kernel '_Z7Kernel2PbS_S_S_i' to stream 0, gridDim= (63,1,1) blockDim = (512,1,1) 
kernel '_Z7Kernel2PbS_S_S_i' transfer to GPU hardware scheduler
GPGPU-Sim uArch: Shader 9 bind to kernel 2 '_Z7Kernel2PbS_S_S_i'
GPGPU-Sim uArch: CTA/core = 3, limited by: threads
GPGPU-Sim uArch: core:  9, cta: 0 initialized @(1,8539)
GPGPU-Sim uArch: Shader 10 bind to kernel 2 '_Z7Kernel2PbS_S_S_i'
GPGPU-Sim uArch: core: 10, cta: 0 initialized @(1,8539)
GPGPU-Sim uArch: Shader 11 bind to kernel 2 '_Z7Kernel2PbS_S_S_i'
GPGPU-Sim uArch: core: 11, cta: 0 initialized @(1,8539)
GPGPU-Sim uArch: Shader 12 bind to kernel 2 '_Z7Kernel2PbS_S_S_i'
GPGPU-Sim uArch: core: 12, cta: 0 initialized @(1,8539)
GPGPU-Sim uArch: Shader 13 bind to kernel 2 '_Z7Kernel2PbS_S_S_i'
GPGPU-Sim uArch: core: 13, cta: 0 initialized @(1,8539)
GPGPU-Sim uArch: Shader 14 bind to kernel 2 '_Z7Kernel2PbS_S_S_i'
GPGPU-Sim uArch: core: 14, cta: 0 initialized @(1,8539)
GPGPU-Sim uArch: Shader 0 bind to kernel 2 '_Z7Kernel2PbS_S_S_i'
GPGPU-Sim uArch: core:  0, cta: 0 initialized @(1,8539)
GPGPU-Sim uArch: Shader 1 bind to kernel 2 '_Z7Kernel2PbS_S_S_i'
GPGPU-Sim uArch: core:  1, cta: 0 initialized @(1,8539)
GPGPU-Sim uArch: Shader 2 bind to kernel 2 '_Z7Kernel2PbS_S_S_i'
GPGPU-Sim uArch: core:  2, cta: 0 initialized @(1,8539)
GPGPU-Sim uArch: Shader 3 bind to kernel 2 '_Z7Kernel2PbS_S_S_i'
GPGPU-Sim uArch: core:  3, cta: 0 initialized @(1,8539)
GPGPU-Sim uArch: Shader 4 bind to kernel 2 '_Z7Kernel2PbS_S_S_i'
GPGPU-Sim uArch: core:  4, cta: 0 initialized @(1,8539)
GPGPU-Sim uArch: Shader 5 bind to kernel 2 '_Z7Kernel2PbS_S_S_i'
GPGPU-Sim uArch: core:  5, cta: 0 initialized @(1,8539)
GPGPU-Sim uArch: Shader 6 bind to kernel 2 '_Z7Kernel2PbS_S_S_i'
GPGPU-Sim uArch: core:  6, cta: 0 initialized @(1,8539)
GPGPU-Sim uArch: Shader 7 bind to kernel 2 '_Z7Kernel2PbS_S_S_i'
GPGPU-Sim uArch: core:  7, cta: 0 initialized @(1,8539)
GPGPU-Sim uArch: Shader 8 bind to kernel 2 '_Z7Kernel2PbS_S_S_i'
GPGPU-Sim uArch: core:  8, cta: 0 initialized @(1,8539)
GPGPU-Sim uArch: core:  9, cta: 1 initialized @(2,8539)
GPGPU-Sim uArch: core: 10, cta: 1 initialized @(2,8539)
GPGPU-Sim uArch: core: 11, cta: 1 initialized @(2,8539)
GPGPU-Sim uArch: core: 12, cta: 1 initialized @(2,8539)
GPGPU-Sim uArch: core: 13, cta: 1 initialized @(2,8539)
GPGPU-Sim uArch: core: 14, cta: 1 initialized @(2,8539)
GPGPU-Sim uArch: core:  0, cta: 1 initialized @(2,8539)
GPGPU-Sim uArch: core:  1, cta: 1 initialized @(2,8539)
GPGPU-Sim uArch: core:  2, cta: 1 initialized @(2,8539)
GPGPU-Sim uArch: core:  3, cta: 1 initialized @(2,8539)
GPGPU-Sim uArch: core:  4, cta: 1 initialized @(2,8539)
GPGPU-Sim uArch: core:  5, cta: 1 initialized @(2,8539)
GPGPU-Sim uArch: core:  6, cta: 1 initialized @(2,8539)
GPGPU-Sim uArch: core:  7, cta: 1 initialized @(2,8539)
GPGPU-Sim uArch: core:  8, cta: 1 initialized @(2,8539)
GPGPU-Sim uArch: core:  9, cta: 2 initialized @(3,8539)
GPGPU-Sim uArch: core: 10, cta: 2 initialized @(3,8539)
GPGPU-Sim uArch: core: 11, cta: 2 initialized @(3,8539)
GPGPU-Sim uArch: core: 12, cta: 2 initialized @(3,8539)
GPGPU-Sim uArch: core: 13, cta: 2 initialized @(3,8539)
GPGPU-Sim uArch: core: 14, cta: 2 initialized @(3,8539)
GPGPU-Sim uArch: core:  0, cta: 2 initialized @(3,8539)
GPGPU-Sim uArch: core:  1, cta: 2 initialized @(3,8539)
GPGPU-Sim uArch: core:  2, cta: 2 initialized @(3,8539)
GPGPU-Sim uArch: core:  3, cta: 2 initialized @(3,8539)
GPGPU-Sim uArch: core:  4, cta: 2 initialized @(3,8539)
GPGPU-Sim uArch: core:  5, cta: 2 initialized @(3,8539)
GPGPU-Sim uArch: core:  6, cta: 2 initialized @(3,8539)
GPGPU-Sim uArch: core:  7, cta: 2 initialized @(3,8539)
GPGPU-Sim uArch: core:  8, cta: 2 initialized @(3,8539)
GPGPU-Sim PTX: 500000 instructions simulated : ctaid=(25,0,0) tid=(9,0,0)
GPGPU-Sim PTX: 600000 instructions simulated : ctaid=(28,0,0) tid=(105,0,0)
GPGPU-Sim PTX: 700000 instructions simulated : ctaid=(11,0,0) tid=(425,0,0)
GPGPU-Sim uArch: cycles simulated: 9039  inst.: 638308 (ipc=375.7) sim_rate=212769 (inst/sec) elapsed = 0:0:00:03 / Tue Apr 16 16:45:36 2019
GPGPU-Sim PTX: 800000 instructions simulated : ctaid=(15,0,0) tid=(467,0,0)
GPGPU-Sim uArch: Shader 10 finished CTA #1 (959,8539), 2 CTAs running
GPGPU-Sim uArch: core: 10, cta: 1 initialized @(960,8539)
GPGPU-Sim uArch: Shader 2 finished CTA #1 (964,8539), 2 CTAs running
GPGPU-Sim uArch: core:  2, cta: 1 initialized @(965,8539)
GPGPU-Sim uArch: Shader 5 finished CTA #1 (967,8539), 2 CTAs running
GPGPU-Sim uArch: Shader 5 finished CTA #2 (967,8539), 1 CTAs running
GPGPU-Sim uArch: core:  5, cta: 1 initialized @(968,8539)
GPGPU-Sim uArch: core:  5, cta: 2 initialized @(969,8539)
GPGPU-Sim uArch: Shader 4 finished CTA #2 (972,8539), 2 CTAs running
GPGPU-Sim uArch: Shader 4 finished CTA #0 (972,8539), 1 CTAs running
GPGPU-Sim uArch: core:  4, cta: 0 initialized @(973,8539)
GPGPU-Sim uArch: core:  4, cta: 2 initialized @(974,8539)
GPGPU-Sim uArch: Shader 10 finished CTA #2 (976,8539), 2 CTAs running
GPGPU-Sim uArch: core: 10, cta: 2 initialized @(977,8539)
GPGPU-Sim uArch: Shader 6 finished CTA #1 (978,8539), 2 CTAs running
GPGPU-Sim uArch: Shader 6 finished CTA #2 (978,8539), 1 CTAs running
GPGPU-Sim uArch: core:  6, cta: 1 initialized @(979,8539)
GPGPU-Sim uArch: core:  6, cta: 2 initialized @(980,8539)
GPGPU-Sim uArch: Shader 2 finished CTA #2 (981,8539), 2 CTAs running
GPGPU-Sim uArch: core:  2, cta: 2 initialized @(982,8539)
GPGPU-Sim uArch: Shader 8 finished CTA #0 (985,8539), 2 CTAs running
GPGPU-Sim uArch: core:  8, cta: 0 initialized @(986,8539)
GPGPU-Sim uArch: Shader 13 finished CTA #1 (991,8539), 2 CTAs running
GPGPU-Sim uArch: Shader 13 finished CTA #2 (991,8539), 1 CTAs running
GPGPU-Sim uArch: core: 13, cta: 1 initialized @(992,8539)
GPGPU-Sim uArch: core: 13, cta: 2 initialized @(993,8539)
GPGPU-Sim uArch: Shader 12 finished CTA #2 (997,8539), 2 CTAs running
GPGPU-Sim uArch: core: 12, cta: 2 initialized @(998,8539)
GPGPU-Sim uArch: cycles simulated: 9539  inst.: 771502 (ipc=321.1) sim_rate=192875 (inst/sec) elapsed = 0:0:00:04 / Tue Apr 16 16:45:37 2019
GPGPU-Sim uArch: Shader 1 finished CTA #2 (1002,8539), 2 CTAs running
GPGPU-Sim uArch: Shader 1 finished CTA #0 (1002,8539), 1 CTAs running
GPGPU-Sim uArch: Shader 8 finished CTA #1 (1002,8539), 2 CTAs running
GPGPU-Sim uArch: core:  1, cta: 0 initialized @(1003,8539)
GPGPU-Sim uArch: core:  8, cta: 1 initialized @(1003,8539)
GPGPU-Sim uArch: core:  1, cta: 2 initialized @(1004,8539)
GPGPU-Sim uArch: Shader 3 finished CTA #2 (1008,8539), 2 CTAs running
GPGPU-Sim uArch: Shader 3 finished CTA #0 (1008,8539), 1 CTAs running
GPGPU-Sim uArch: core:  3, cta: 0 initialized @(1009,8539)
GPGPU-Sim uArch: Shader 7 finished CTA #2 (1010,8539), 2 CTAs running
GPGPU-Sim uArch: Shader 12 finished CTA #0 (1014,8539), 2 CTAs running
GPGPU-Sim uArch: Shader 7 finished CTA #1 (1017,8539), 1 CTAs running
GPGPU-Sim uArch: Shader 1 finished CTA #1 (1019,8539), 2 CTAs running
GPGPU-Sim uArch: Shader 9 finished CTA #0 (1020,8539), 2 CTAs running
GPGPU-Sim uArch: Shader 7 finished CTA #0 (1021,8539), 0 CTAs running
GPGPU-Sim uArch: Shader 7 empty (release kernel 2 '_Z7Kernel2PbS_S_S_i').
GPGPU-Sim uArch: Shader 9 finished CTA #1 (1023,8539), 1 CTAs running
GPGPU-Sim uArch: Shader 3 finished CTA #1 (1025,8539), 1 CTAs running
GPGPU-Sim uArch: Shader 11 finished CTA #0 (1026,8539), 2 CTAs running
GPGPU-Sim uArch: Shader 11 finished CTA #1 (1026,8539), 1 CTAs running
GPGPU-Sim uArch: Shader 9 finished CTA #2 (1027,8539), 0 CTAs running
GPGPU-Sim uArch: Shader 9 empty (release kernel 2 '_Z7Kernel2PbS_S_S_i').
GPGPU-Sim uArch: Shader 0 finished CTA #1 (1028,8539), 2 CTAs running
GPGPU-Sim uArch: Shader 11 finished CTA #2 (1033,8539), 0 CTAs running
GPGPU-Sim uArch: Shader 11 empty (release kernel 2 '_Z7Kernel2PbS_S_S_i').
GPGPU-Sim uArch: Shader 0 finished CTA #0 (1035,8539), 1 CTAs running
GPGPU-Sim uArch: Shader 14 finished CTA #2 (1038,8539), 2 CTAs running
GPGPU-Sim uArch: Shader 0 finished CTA #2 (1039,8539), 0 CTAs running
GPGPU-Sim uArch: Shader 0 empty (release kernel 2 '_Z7Kernel2PbS_S_S_i').
GPGPU-Sim uArch: Shader 14 finished CTA #0 (1041,8539), 1 CTAs running
GPGPU-Sim uArch: Shader 14 finished CTA #1 (1045,8539), 0 CTAs running
GPGPU-Sim uArch: Shader 14 empty (release kernel 2 '_Z7Kernel2PbS_S_S_i').
GPGPU-Sim PTX: 900000 instructions simulated : ctaid=(47,0,0) tid=(212,0,0)
GPGPU-Sim uArch: Shader 5 finished CTA #0 (1187,8539), 2 CTAs running
GPGPU-Sim uArch: Shader 12 finished CTA #1 (1203,8539), 1 CTAs running
GPGPU-Sim uArch: Shader 4 finished CTA #1 (1205,8539), 2 CTAs running
GPGPU-Sim uArch: Shader 8 finished CTA #2 (1207,8539), 2 CTAs running
GPGPU-Sim uArch: Shader 2 finished CTA #0 (1209,8539), 2 CTAs running
GPGPU-Sim uArch: Shader 6 finished CTA #0 (1213,8539), 2 CTAs running
GPGPU-Sim uArch: Shader 10 finished CTA #0 (1215,8539), 2 CTAs running
GPGPU-Sim uArch: Shader 13 finished CTA #0 (1217,8539), 2 CTAs running
GPGPU-Sim uArch: Shader 3 finished CTA #0 (1377,8539), 0 CTAs running
GPGPU-Sim uArch: Shader 3 empty (release kernel 2 '_Z7Kernel2PbS_S_S_i').
GPGPU-Sim uArch: Shader 12 finished CTA #2 (1405,8539), 0 CTAs running
GPGPU-Sim uArch: Shader 12 empty (release kernel 2 '_Z7Kernel2PbS_S_S_i').
GPGPU-Sim uArch: Shader 4 finished CTA #0 (1415,8539), 1 CTAs running
GPGPU-Sim uArch: Shader 5 finished CTA #1 (1415,8539), 1 CTAs running
GPGPU-Sim uArch: Shader 2 finished CTA #1 (1421,8539), 1 CTAs running
GPGPU-Sim uArch: Shader 6 finished CTA #1 (1427,8539), 1 CTAs running
GPGPU-Sim uArch: Shader 13 finished CTA #1 (1439,8539), 1 CTAs running
GPGPU-Sim uArch: Shader 1 finished CTA #0 (1450,8539), 1 CTAs running
GPGPU-Sim uArch: Shader 5 finished CTA #2 (1478,8539), 0 CTAs running
GPGPU-Sim uArch: Shader 5 empty (release kernel 2 '_Z7Kernel2PbS_S_S_i').
GPGPU-Sim uArch: Shader 6 finished CTA #2 (1489,8539), 0 CTAs running
GPGPU-Sim uArch: Shader 6 empty (release kernel 2 '_Z7Kernel2PbS_S_S_i').
GPGPU-Sim uArch: cycles simulated: 10039  inst.: 898136 (ipc=298.5) sim_rate=179627 (inst/sec) elapsed = 0:0:00:05 / Tue Apr 16 16:45:38 2019
GPGPU-Sim uArch: Shader 8 finished CTA #1 (1501,8539), 1 CTAs running
GPGPU-Sim uArch: Shader 13 finished CTA #2 (1503,8539), 0 CTAs running
GPGPU-Sim uArch: Shader 13 empty (release kernel 2 '_Z7Kernel2PbS_S_S_i').
GPGPU-Sim uArch: Shader 1 finished CTA #2 (1511,8539), 0 CTAs running
GPGPU-Sim uArch: Shader 1 empty (release kernel 2 '_Z7Kernel2PbS_S_S_i').
GPGPU-Sim uArch: Shader 10 finished CTA #1 (1545,8539), 1 CTAs running
GPGPU-Sim uArch: Shader 4 finished CTA #2 (1567,8539), 0 CTAs running
GPGPU-Sim uArch: Shader 4 empty (release kernel 2 '_Z7Kernel2PbS_S_S_i').
GPGPU-Sim uArch: Shader 10 finished CTA #2 (1585,8539), 0 CTAs running
GPGPU-Sim uArch: Shader 10 empty (release kernel 2 '_Z7Kernel2PbS_S_S_i').
GPGPU-Sim uArch: Shader 8 finished CTA #0 (1597,8539), 0 CTAs running
GPGPU-Sim uArch: Shader 8 empty (release kernel 2 '_Z7Kernel2PbS_S_S_i').
GPGPU-Sim uArch: Shader 2 finished CTA #2 (1712,8539), 0 CTAs running
GPGPU-Sim uArch: Shader 2 empty (release kernel 2 '_Z7Kernel2PbS_S_S_i').
GPGPU-Sim uArch: GPU detected kernel '_Z7Kernel2PbS_S_S_i' finished on shader 2.
kernel_name = _Z7Kernel2PbS_S_S_i 
kernel_launch_uid = 2 
gpu_sim_cycle = 1713
gpu_sim_insn = 450228
gpu_ipc =     262.8301
gpu_tot_sim_cycle = 10252
gpu_tot_sim_insn = 900664
gpu_tot_ipc =      87.8525
gpu_tot_issued_cta = 0
gpu_stall_dramfull = 423
gpu_stall_icnt2sh    = 462
gpu_total_sim_rate=180132

========= Core cache stats =========
L1I_cache:
	L1I_total_cache_accesses = 20272
	L1I_total_cache_misses = 1901
	L1I_total_cache_miss_rate = 0.0938
	L1I_total_cache_pending_hits = 0
	L1I_total_cache_reservation_fails = 9374
L1D_cache:
	L1D_cache_core[0]: Access = 144, Miss = 36, Miss_rate = 0.250, Pending_hits = 108, Reservation_fails = 0
	L1D_cache_core[1]: Access = 252, Miss = 84, Miss_rate = 0.333, Pending_hits = 109, Reservation_fails = 263
	L1D_cache_core[2]: Access = 164, Miss = 43, Miss_rate = 0.262, Pending_hits = 120, Reservation_fails = 738
	L1D_cache_core[3]: Access = 136, Miss = 34, Miss_rate = 0.250, Pending_hits = 102, Reservation_fails = 211
	L1D_cache_core[4]: Access = 168, Miss = 46, Miss_rate = 0.274, Pending_hits = 120, Reservation_fails = 336
	L1D_cache_core[5]: Access = 164, Miss = 43, Miss_rate = 0.262, Pending_hits = 120, Reservation_fails = 260
	L1D_cache_core[6]: Access = 168, Miss = 46, Miss_rate = 0.274, Pending_hits = 120, Reservation_fails = 290
	L1D_cache_core[7]: Access = 112, Miss = 28, Miss_rate = 0.250, Pending_hits = 84, Reservation_fails = 218
	L1D_cache_core[8]: Access = 152, Miss = 47, Miss_rate = 0.309, Pending_hits = 102, Reservation_fails = 386
	L1D_cache_core[9]: Access = 112, Miss = 28, Miss_rate = 0.250, Pending_hits = 84, Reservation_fails = 217
	L1D_cache_core[10]: Access = 140, Miss = 41, Miss_rate = 0.293, Pending_hits = 96, Reservation_fails = 317
	L1D_cache_core[11]: Access = 112, Miss = 28, Miss_rate = 0.250, Pending_hits = 84, Reservation_fails = 184
	L1D_cache_core[12]: Access = 116, Miss = 31, Miss_rate = 0.267, Pending_hits = 84, Reservation_fails = 349
	L1D_cache_core[13]: Access = 132, Miss = 35, Miss_rate = 0.265, Pending_hits = 96, Reservation_fails = 110
	L1D_cache_core[14]: Access = 96, Miss = 24, Miss_rate = 0.250, Pending_hits = 72, Reservation_fails = 126
	L1D_total_cache_accesses = 2168
	L1D_total_cache_misses = 594
	L1D_total_cache_miss_rate = 0.2740
	L1D_total_cache_pending_hits = 1501
	L1D_total_cache_reservation_fails = 4005
	L1D_cache_data_port_util = 0.001
	L1D_cache_fill_port_util = 0.010
L1C_cache:
	L1C_total_cache_accesses = 4094
	L1C_total_cache_misses = 480
	L1C_total_cache_miss_rate = 0.1172
	L1C_total_cache_pending_hits = 0
	L1C_total_cache_reservation_fails = 3411
L1T_cache:
	L1T_total_cache_accesses = 0
	L1T_total_cache_misses = 0
	L1T_total_cache_pending_hits = 0
	L1T_total_cache_reservation_fails = 0

Total_core_cache_stats:
	Total_core_cache_stats_breakdown[GLOBAL_ACC_R][HIT] = 58
	Total_core_cache_stats_breakdown[GLOBAL_ACC_R][HIT_RESERVED] = 1501
	Total_core_cache_stats_breakdown[GLOBAL_ACC_R][MISS] = 518
	Total_core_cache_stats_breakdown[GLOBAL_ACC_R][RESERVATION_FAIL] = 3075
	Total_core_cache_stats_breakdown[CONST_ACC_R][HIT] = 3614
	Total_core_cache_stats_breakdown[CONST_ACC_R][MISS] = 480
	Total_core_cache_stats_breakdown[CONST_ACC_R][RESERVATION_FAIL] = 3411
	Total_core_cache_stats_breakdown[GLOBAL_ACC_W][HIT] = 15
	Total_core_cache_stats_breakdown[GLOBAL_ACC_W][MISS] = 76
	Total_core_cache_stats_breakdown[GLOBAL_ACC_W][RESERVATION_FAIL] = 930
	Total_core_cache_stats_breakdown[INST_ACC_R][HIT] = 18371
	Total_core_cache_stats_breakdown[INST_ACC_R][MISS] = 1901
	Total_core_cache_stats_breakdown[INST_ACC_R][RESERVATION_FAIL] = 9374
Shader 0 warp_id issue ditsribution:
warp_id:
0, 1, 2, 3, 4, 5, 6, 7, 8, 9, 10, 11, 12, 13, 14, 15, 16, 17, 18, 19, 20, 21, 22, 23, 24, 25, 26, 27, 28, 29, 30, 31, 32, 33, 34, 35, 36, 37, 38, 39, 40, 41, 42, 43, 44, 45, 46, 47, 
distro:
45, 45, 45, 45, 45, 45, 45, 45, 45, 45, 45, 45, 45, 45, 45, 45, 45, 45, 45, 45, 45, 45, 45, 45, 45, 45, 45, 45, 45, 45, 45, 45, 45, 45, 45, 45, 45, 45, 45, 45, 45, 45, 45, 45, 45, 45, 45, 45, 
gpgpu_n_tot_thrd_icount = 983328
gpgpu_n_tot_w_icount = 30729
gpgpu_n_stall_shd_mem = 7416
gpgpu_n_mem_read_local = 0
gpgpu_n_mem_write_local = 0
gpgpu_n_mem_read_global = 518
gpgpu_n_mem_write_global = 91
gpgpu_n_mem_texture = 0
gpgpu_n_mem_const = 15
gpgpu_n_load_insn  = 64077
gpgpu_n_store_insn = 91
gpgpu_n_shmem_insn = 0
gpgpu_n_tex_insn = 0
gpgpu_n_const_mem_insn = 0
gpgpu_n_param_mem_insn = 128590
gpgpu_n_shmem_bkconflict = 0
gpgpu_n_cache_bkconflict = 0
gpgpu_n_intrawarp_mshr_merge = 0
gpgpu_n_cmem_portconflict = 3411
gpgpu_stall_shd_mem[c_mem][bk_conf] = 3411
gpgpu_stall_shd_mem[c_mem][mshr_rc] = 0
gpgpu_stall_shd_mem[c_mem][icnt_rc] = 0
gpgpu_stall_shd_mem[c_mem][data_port_stall] = 0
gpgpu_stall_shd_mem[t_mem][mshr_rc] = 0
gpgpu_stall_shd_mem[t_mem][icnt_rc] = 0
gpgpu_stall_shd_mem[t_mem][data_port_stall] = 0
gpgpu_stall_shd_mem[s_mem][bk_conf] = 0
gpgpu_stall_shd_mem[gl_mem][bk_conf] = 0
gpgpu_stall_shd_mem[gl_mem][coal_stall] = 4005
gpgpu_stall_shd_mem[gl_mem][data_port_stall] = 0
gpgpu_stall_shd_mem[g_mem_ld][mshr_rc] = 0
gpgpu_stall_shd_mem[g_mem_ld][icnt_rc] = 0
gpgpu_stall_shd_mem[g_mem_ld][wb_icnt_rc] = 0
gpgpu_stall_shd_mem[g_mem_ld][wb_rsrv_fail] = 0
gpgpu_stall_shd_mem[g_mem_st][mshr_rc] = 0
gpgpu_stall_shd_mem[g_mem_st][icnt_rc] = 0
gpgpu_stall_shd_mem[g_mem_st][wb_icnt_rc] = 0
gpgpu_stall_shd_mem[g_mem_st][wb_rsrv_fail] = 0
gpgpu_stall_shd_mem[l_mem_ld][mshr_rc] = 0
gpgpu_stall_shd_mem[l_mem_ld][icnt_rc] = 0
gpgpu_stall_shd_mem[l_mem_ld][wb_icnt_rc] = 0
gpgpu_stall_shd_mem[l_mem_ld][wb_rsrv_fail] = 0
gpgpu_stall_shd_mem[l_mem_st][mshr_rc] = 0
gpgpu_stall_shd_mem[l_mem_st][icnt_rc] = 0
gpgpu_stall_shd_mem[l_mem_ld][wb_icnt_rc] = 0
gpgpu_stall_shd_mem[l_mem_ld][wb_rsrv_fail] = 0
gpu_reg_bank_conflict_stalls = 0
Warp Occupancy Distribution:
Stall:13191	W0_Idle:29345	W0_Scoreboard:32051	W1:601	W2:0	W3:0	W4:0	W5:0	W6:0	W7:0	W8:0	W9:0	W10:0	W11:0	W12:0	W13:0	W14:0	W15:0	W16:0	W17:0	W18:0	W19:0	W20:0	W21:0	W22:0	W23:0	W24:0	W25:0	W26:0	W27:0	W28:0	W29:0	W30:0	W31:0	W32:30128
traffic_breakdown_coretomem[CONST_ACC_R] = 120 {8:15,}
traffic_breakdown_coretomem[GLOBAL_ACC_R] = 4144 {8:518,}
traffic_breakdown_coretomem[GLOBAL_ACC_W] = 3640 {40:91,}
traffic_breakdown_coretomem[INST_ACC_R] = 496 {8:62,}
traffic_breakdown_memtocore[CONST_ACC_R] = 1080 {72:15,}
traffic_breakdown_memtocore[GLOBAL_ACC_R] = 70448 {136:518,}
traffic_breakdown_memtocore[GLOBAL_ACC_W] = 728 {8:91,}
traffic_breakdown_memtocore[INST_ACC_R] = 8432 {136:62,}
maxmrqlatency = 57 
maxdqlatency = 0 
maxmflatency = 380 
averagemflatency = 260 
max_icnt2mem_latency = 36 
max_icnt2sh_latency = 10136 
mrq_lat_table:385 	31 	58 	39 	29 	31 	0 	0 	0 	0 	0 	0 	0 	0 	0 	0 	0 	0 	0 	0 	0 	0 	0 	0 	0 	0 	0 	0 	0 	0 	0 	0 	
dq_lat_table:0 	0 	0 	0 	0 	0 	0 	0 	0 	0 	0 	0 	0 	0 	0 	0 	0 	0 	0 	0 	0 	0 	0 	0 	0 	0 	0 	0 	0 	0 	0 	0 	
mf_lat_table:0 	0 	0 	0 	0 	0 	0 	109 	515 	0 	0 	0 	0 	0 	0 	0 	0 	0 	0 	0 	0 	0 	0 	0 	0 	0 	0 	0 	0 	0 	0 	0 	
icnt2mem_lat_table:0 	0 	0 	667 	14 	5 	0 	0 	0 	0 	0 	0 	0 	0 	0 	0 	0 	0 	0 	0 	0 	0 	0 	0 	
icnt2sh_lat_table:0 	0 	0 	348 	169 	16 	0 	0 	0 	0 	1 	6 	22 	62 	0 	0 	0 	0 	0 	0 	0 	0 	0 	0 	
mf_lat_pw_table:0 	0 	0 	0 	0 	0 	0 	14 	5 	0 	0 	0 	0 	0 	0 	0 	0 	0 	0 	0 	0 	0 	0 	0 	0 	0 	0 	0 	0 	0 	0 	0 	
maximum concurrent accesses to same row:
dram[0]:         1         0         0         0         0         0         0         0         0         0         0         0         0         0         0         0 
dram[1]:         0         0         0         0         0         0         0         0         0         0         0         0         0         0         0         0 
dram[2]:         0         0         0         0         0         1         0         0         0         0         0         0         0         0         0         0 
dram[3]:         0         0         0         0         0         0         0         0         0         0         0         0         0         0         0         0 
dram[4]:         0         0         0         0         0         0         0         0         0         0         0         0         0         0         0         0 
dram[5]:         0         0         0         0         0         0         0         0         0         0         0         0         0         0         0         0 
maximum service time to same row:
dram[0]:       634         0       949       951      1232      1697      2771      5604         0      7710      8507         0         0         0      1919         0 
dram[1]:      1194         0       915       938      1029      1693      4088         0         0         0      3069         0         0         0         0         0 
dram[2]:       385         0       938       954      1066      1550         0      3685      7316         0         0         0         0      1168         0         0 
dram[3]:         0         0       916       935      1650      1660         0      3282         0      6785         0      5999         0         0         0         0 
dram[4]:         0         0       943       963      1659      1669         0      2465      4019         0         0         0         0         0         0         0 
dram[5]:         0         0       925       919      1688      1660         0      7779         0         0      8113      3616         0         0         0         0 
average row accesses per activate:
dram[0]:  1.000000      -nan 14.000000 14.000000 28.000000 31.000000  4.000000  2.000000      -nan  2.000000  2.000000      -nan      -nan      -nan  1.000000      -nan 
dram[1]:  2.000000      -nan 14.000000 14.000000 29.000000 28.000000  4.000000      -nan      -nan      -nan  4.000000      -nan      -nan      -nan      -nan      -nan 
dram[2]:  2.000000      -nan 14.000000 14.000000 29.000000 15.000000      -nan  3.000000  2.000000      -nan      -nan      -nan      -nan  5.000000      -nan      -nan 
dram[3]:      -nan      -nan 14.000000 16.000000 30.000000 26.000000      -nan  2.000000      -nan  2.000000      -nan  2.000000      -nan      -nan      -nan      -nan 
dram[4]:      -nan      -nan 14.000000 16.000000 31.000000 27.000000      -nan  1.000000  2.000000      -nan      -nan      -nan      -nan      -nan      -nan      -nan 
dram[5]:      -nan      -nan 14.000000 16.000000 30.000000 28.000000      -nan  1.000000      -nan      -nan  2.000000  4.000000      -nan      -nan      -nan      -nan 
average row locality = 573/48 = 11.937500
number of total memory accesses made:
dram[0]:         0         0         0         0         0         0         0         0         0         0         0         0         0         0         0         0 
dram[1]:         0         0         0         0         0         0         0         0         0         0         0         0         0         0         0         0 
dram[2]:         0         0         0         0         0         0         0         0         0         0         0         0         0         0         0         0 
dram[3]:         0         0         0         0         0         0         0         0         0         0         0         0         0         0         0         0 
dram[4]:         0         0         0         0         0         0         0         0         0         0         0         0         0         0         0         0 
dram[5]:         0         0         0         0         0         0         0         0         0         0         0         0         0         0         0         0 
total accesses: 0
min_bank_accesses = 0!
min_chip_accesses = 0!
number of total read accesses:
[...]
traffic_breakdown_coretomem[CONST_ACC_R] = 120 {8:15,}
traffic_breakdown_coretomem[GLOBAL_ACC_R] = 7555696 {8:944462,}
traffic_breakdown_coretomem[GLOBAL_ACC_W] = 9426304 {40:235338,72:34,136:76,}
traffic_breakdown_coretomem[INST_ACC_R] = 720 {8:90,}
traffic_breakdown_memtocore[CONST_ACC_R] = 1080 {72:15,}
traffic_breakdown_memtocore[GLOBAL_ACC_R] = 128446832 {136:944462,}
traffic_breakdown_memtocore[GLOBAL_ACC_W] = 1883584 {8:235448,}
traffic_breakdown_memtocore[INST_ACC_R] = 12240 {136:90,}
maxmrqlatency = 113 
maxdqlatency = 0 
maxmflatency = 794 
averagemflatency = 178 
max_icnt2mem_latency = 600 
max_icnt2sh_latency = 1794181 
mrq_lat_table:44939 	2864 	509 	2530 	8806 	429 	76 	0 	0 	0 	0 	0 	0 	0 	0 	0 	0 	0 	0 	0 	0 	0 	0 	0 	0 	0 	0 	0 	0 	0 	0 	0 	
dq_lat_table:0 	0 	0 	0 	0 	0 	0 	0 	0 	0 	0 	0 	0 	0 	0 	0 	0 	0 	0 	0 	0 	0 	0 	0 	0 	0 	0 	0 	0 	0 	0 	0 	
mf_lat_table:0 	0 	0 	0 	0 	0 	0 	1113005 	66629 	291 	0 	0 	0 	0 	0 	0 	0 	0 	0 	0 	0 	0 	0 	0 	0 	0 	0 	0 	0 	0 	0 	0 	
icnt2mem_lat_table:0 	0 	0 	767961 	360647 	40349 	1563 	6872 	2607 	16 	0 	0 	0 	0 	0 	0 	0 	0 	0 	0 	0 	0 	0 	0 	
icnt2sh_lat_table:0 	0 	0 	211951 	391326 	308780 	32407 	13 	0 	0 	1 	6 	22 	360 	3230 	5478 	22162 	42310 	54783 	61226 	45870 	0 	0 	0 	
mf_lat_pw_table:0 	0 	0 	0 	0 	0 	0 	3607 	30 	0 	0 	0 	0 	0 	0 	0 	0 	0 	0 	0 	0 	0 	0 	0 	0 	0 	0 	0 	0 	0 	0 	0 	
maximum concurrent accesses to same row:
dram[0]:        18        16        42        43        32        32        30        29        47        24        22        32        13        21        14        13 
dram[1]:        18        19        57        47        31        31        27        29        46        39        32        40        11        25        17        13 
dram[2]:        16        16        48        38        31        29        27        26        38        50        26        30        23        24        18        18 
dram[3]:        19        16        50        55        34        29        19        19        44        42        43        34        15        22        15        15 
dram[4]:        17        17        40        43        33        28        29        27        30        54        38        49        23        25        16        17 
dram[5]:        17        18        49        58        33        28        30        29        42        32        28        48        26        25        13        18 
maximum service time to same row:
dram[0]:    104625    106718     96250    130639     80375    149478     31322     59309     97618     52079     62522     59116     83722    126026     93611     62503 
dram[1]:    139147    202368     45731    100438     87159     44944     71979     39891     67483     46753     63974     26803     46994    114317     94695     55572 
dram[2]:    157178    113148     86619    166940     75599     95818     71864     50981     41782     57559     40470     49995     59591     89089     78901     49229 
dram[3]:     98281    132839    100515     79118    100177     48956     50619     46421     66006     39581     66281     72664     77813     92510    105383     66357 
dram[4]:    123988    155248     86651     86233     70316     57760     60790     84121     74408     36650     38669    133227    110044     83961     55152     68991 
dram[5]:    121290    132742     98600    121204     89568     58361     64330     44134     56906     51265     69266     37696     79695     69994     94718     62784 
average row accesses per activate:
dram[0]:  2.337778  2.231156  2.142857  2.279352  2.220859  2.409283  2.485714  2.269896  2.355615  2.415873  2.214797  2.098931  2.270992  2.410628  2.598958  2.328205 
dram[1]:  2.305164  2.697675  2.327068  2.311404  2.416988  2.398058  2.279743  2.136364  2.312500  2.412639  2.046316  2.075650  2.172131  2.376344  2.489691  2.075949 
dram[2]:  2.149533  2.472222  2.357430  2.197842  2.356322  2.252707  2.447654  2.287097  2.122078  2.141148  2.161520  2.331002  2.417476  2.666667  2.432990  2.647059 
dram[3]:  2.769841  2.616580  2.364486  2.509960  2.286325  2.389513  2.054878  2.256757  2.300971  2.137592  2.128000  2.188264  2.392265  2.388393  2.139303  2.463917 
dram[4]:  2.430493  2.205742  2.173913  2.256917  2.419118  2.451163  2.395349  2.455197  2.231169  2.211864  2.026966  2.196682  2.666667  2.268518  2.517588  2.683908 
dram[5]:  2.402062  2.323529  2.227586  2.431035  2.497817  2.160784  2.450658  2.100000  2.482540  2.299685  2.042601  2.101449  2.356807  2.477528  2.341121  2.320197 
average row locality = 60153/26211 = 2.294952
number of total memory accesses made:
dram[0]:         0         0         0         0         0         0         0         0         0         0         0         0         0         0         0         0 
dram[1]:         0         0         0         0         0         0         0         0         0         0         0         0         0         0         0         0 
dram[2]:         0         0         0         0         0         0         0         0         0         0         0         0         0         0         0         0 
dram[3]:         0         0         0         0         0         0         0         0         0         0         0         0         0         0         0         0 
dram[4]:         0         0         0         0         0         0         0         0         0         0         0         0         0         0         0         0 
dram[5]:         0         0         0         0         0         0         0         0         0         0         0         0         0         0         0         0 
total accesses: 0
min_bank_accesses = 0!
min_chip_accesses = 0!
number of total read accesses:
dram[0]:       526       444       515       484       591       471       593       548       678       555       688       590       554       471       499       454 
dram[1]:       491       348       510       447       514       425       597       581       651       493       728       659       498       417       483       492 
dram[2]:       460       534       501       532       507       547       560       582       600       686       685       733       472       512       472       495 
dram[3]:       349       505       415       504       458       543       578       558       527       679       610       661       409       523       430       478 
dram[4]:       542       461       527       473       542       467       601       560       659       590       689       669       539       477       501       467 
dram[5]:       466       395       554       442       477       481       610       543       573       560       713       647       470       433       501       471 
total reads: 51200
bank skew: 733/348 = 2.11
chip skew: 8878/8227 = 1.08
number of total write accesses:
dram[0]:         0         0        85        79       133       100       103       108       203       206       240       195        41        28         0         0 
dram[1]:         0         0       109        80       112        69       112       124       200       156       244       219        32        25         0         0 
dram[2]:         0         0        86        79       108        77       118       127       217       209       225       267        26        16         0         0 
dram[3]:         0         0        91       126        77        95        96       110       184       191       188       234        24        12         0         0 
dram[4]:         0         0        73        98       116        60       120       125       200       193       213       258        37        13         0         0 
dram[5]:         0         0        92       122        95        70       135       108       209       169       198       223        32         8         0         0 
total reads: 8953
min_bank_accesses = 0!
chip skew: 1555/1428 = 1.09
average mf latency per bank:
dram[0]:       1554      1843      1506      1533      5217      6676      9254      9822      1948      2134      1809      2138      1702      2006      1797      1905
dram[1]:       1707      2371      1388      1663      5880      8661      9250      9240      2009      2514      1729      1874      1891      2185      1772      1826
dram[2]:       1778      1555      1502      1471      6177      6984      9546      9159      2099      1911      1823      1654      1954      3773      1852      1794
dram[3]:       2239      1684      1738      1429      7042      6813      9651      9822      2342      1963      2122      1857      2235      1835      2042      1794
dram[4]:       1566      1766      1528      1507      5775      8283      9008      9534      1966      2148      1850      1808      1762      1911      1754      1889
dram[5]:       1775      2115      1360      1622      6659      7934      8777      9991      2137      2396      1878      1956      1989      2117      1739      1826
maximum mf latency per bank:
dram[0]:        436       415       574       600       521       607       507       505       392       401       405       408       387       388       384       384
dram[1]:        407       387       682       551       647       563       533       455       403       389       406       396       403       380       402       397
dram[2]:        397       415       564       646       716       730       559       596       395       431       401       432       432       713       388       413
dram[3]:        392       415       716       653       599       662       435       452       393       402       384       385       397       400       388       413
dram[4]:        412       400       794       694       493       488       438       443       401       398       411       400       395       417       381       397
dram[5]:        395       389       551       473       533       497       451       493       393       406       405       406       403       381       410       411

Number of Memory Banks Accessed per Memory Operation per Warp (from 0):
0	0	0	0	0	0	0	0	0	0	0	0	0	0	0	0	0	0	0	0	0	0	0	0	0	0	0	0	0	0	0	0	0	0	0	0	0	0	0	0	0	0	0	0	0	0	0	0	0	0	0	0	0	0	0	0	0	0	0	0	0	0	0	0	0	0	0	0	0	0	0	0	0	0	0	0	0	0	0	0	0	0	0	0	0	0	0	0	0	0	0	0	0	0	0	0	
Average # of Memory Banks Accessed per Memory Operation per Warp=-nan

position of mrq chosen
0	0	0	0	0	0	0	0	0	0	0	0	0	0	0	0	

average position of mrq chosen = -nan
Memory Partition 0: 
Cache L2_bank_000:
MSHR contents

Cache L2_bank_001:
MSHR contents

In Dram Latency Queue (total = 0): 
DRAM[0]: 16 bks, busW=4 BL=8 CL=12, tRRD=2 tCCD=6, tRCD=12 tRAS=28 tRP=12 tRC=40
n_cmd=2397986 n_nop=2369580 n_act=4421 n_pre=4405 n_req=10182 n_rd=17322 n_write=2258 bw_util=0.01633
n_activity=235184 dram_eff=0.1665
bk0: 1052a 2389884i bk1: 888a 2391121i bk2: 1030a 2387794i bk3: 968a 2388805i bk4: 1182a 2385682i bk5: 942a 2388673i bk6: 1186a 2386804i bk7: 1096a 2386909i bk8: 1356a 2383087i bk9: 1110a 2385168i bk10: 1376a 2381687i bk11: 1180a 2383498i bk12: 1108a 2387751i bk13: 942a 2389999i bk14: 998a 2390647i bk15: 908a 2391008i 
dram_util_bins: 0 0 0 0 0 0 0 0 0 0
dram_eff_bins: 0 0 0 0 0 0 0 0 0 0
mrqq: max=12 avg=0.0216899
Memory Partition 1: 
Cache L2_bank_002:
MSHR contents

Cache L2_bank_003:
MSHR contents

In Dram Latency Queue (total = 0): 
DRAM[1]: 16 bks, busW=4 BL=8 CL=12, tRRD=2 tCCD=6, tRCD=12 tRAS=28 tRP=12 tRC=40
n_cmd=2397986 n_nop=2370496 n_act=4338 n_pre=4322 n_req=9816 n_rd=16668 n_write=2162 bw_util=0.0157
n_activity=233500 dram_eff=0.1613
bk0: 982a 2390364i bk1: 696a 2393189i bk2: 1020a 2387941i bk3: 894a 2389520i bk4: 1028a 2388204i bk5: 850a 2390296i bk6: 1194a 2386511i bk7: 1162a 2386005i bk8: 1302a 2383507i bk9: 986a 2387186i bk10: 1456a 2380136i bk11: 1318a 2381662i bk12: 996a 2388521i bk13: 834a 2390708i bk14: 966a 2390624i bk15: 984a 2389726i 
dram_util_bins: 0 0 0 0 0 0 0 0 0 0
dram_eff_bins: 0 0 0 0 0 0 0 0 0 0
mrqq: max=16 avg=0.0211774
Memory Partition 2: 
Cache L2_bank_004:
MSHR contents

Cache L2_bank_005:
MSHR contents

In Dram Latency Queue (total = 0): 
DRAM[2]: 16 bks, busW=4 BL=8 CL=12, tRRD=2 tCCD=6, tRCD=12 tRAS=28 tRP=12 tRC=40
n_cmd=2397986 n_nop=2368927 n_act=4520 n_pre=4504 n_req=10433 n_rd=17756 n_write=2279 bw_util=0.01671
n_activity=240230 dram_eff=0.1668
bk0: 920a 2390710i bk1: 1068a 2390274i bk2: 1002a 2388579i bk3: 1064a 2387985i bk4: 1014a 2388230i bk5: 1094a 2387494i bk6: 1120a 2387188i bk7: 1164a 2385753i bk8: 1200a 2383299i bk9: 1372a 2382101i bk10: 1370a 2381298i bk11: 1466a 2380526i bk12: 944a 2389625i bk13: 1024a 2389967i bk14: 944a 2390752i bk15: 990a 2390914i 
dram_util_bins: 0 0 0 0 0 0 0 0 0 0
dram_eff_bins: 0 0 0 0 0 0 0 0 0 0
mrqq: max=13 avg=0.0225673
Memory Partition 3: 
Cache L2_bank_006:
MSHR contents

Cache L2_bank_007:
MSHR contents

In Dram Latency Queue (total = 0): 
DRAM[3]: 16 bks, busW=4 BL=8 CL=12, tRRD=2 tCCD=6, tRCD=12 tRAS=28 tRP=12 tRC=40
n_cmd=2397986 n_nop=2371022 n_act=4209 n_pre=4193 n_req=9655 n_rd=16454 n_write=2108 bw_util=0.01548
n_activity=227630 dram_eff=0.1631
bk0: 698a 2393256i bk1: 1010a 2390948i bk2: 830a 2389988i bk3: 1008a 2388139i bk4: 916a 2389467i bk5: 1086a 2387660i bk6: 1156a 2386244i bk7: 1116a 2386669i bk8: 1054a 2386205i bk9: 1358a 2382774i bk10: 1220a 2383549i bk11: 1322a 2381806i bk12: 818a 2390631i bk13: 1046a 2389374i bk14: 860a 2390725i bk15: 956a 2390795i 
dram_util_bins: 0 0 0 0 0 0 0 0 0 0
dram_eff_bins: 0 0 0 0 0 0 0 0 0 0
mrqq: max=16 avg=0.0203913
Memory Partition 4: 
Cache L2_bank_008:
MSHR contents

Cache L2_bank_009:
MSHR contents

In Dram Latency Queue (total = 0): 
DRAM[4]: 16 bks, busW=4 BL=8 CL=12, tRRD=2 tCCD=6, tRCD=12 tRAS=28 tRP=12 tRC=40
n_cmd=2397986 n_nop=2369376 n_act=4439 n_pre=4423 n_req=10270 n_rd=17528 n_write=2220 bw_util=0.01647
n_activity=237403 dram_eff=0.1664
bk0: 1084a 2389917i bk1: 922a 2390834i bk2: 1054a 2388075i bk3: 946a 2388645i bk4: 1084a 2387482i bk5: 934a 2389560i bk6: 1202a 2386328i bk7: 1120a 2386666i bk8: 1318a 2383308i bk9: 1180a 2384249i bk10: 1378a 2381247i bk11: 1338a 2381284i bk12: 1078a 2388951i bk13: 954a 2389735i bk14: 1002a 2390448i bk15: 934a 2391458i 
dram_util_bins: 0 0 0 0 0 0 0 0 0 0
dram_eff_bins: 0 0 0 0 0 0 0 0 0 0
mrqq: max=9 avg=0.022104
Memory Partition 5: 
Cache L2_bank_010:
MSHR contents

Cache L2_bank_011:
MSHR contents

In Dram Latency Queue (total = 0): 
DRAM[5]: 16 bks, busW=4 BL=8 CL=12, tRRD=2 tCCD=6, tRCD=12 tRAS=28 tRP=12 tRC=40
n_cmd=2397986 n_nop=2370613 n_act=4284 n_pre=4268 n_req=9797 n_rd=16672 n_write=2149 bw_util=0.0157
n_activity=231541 dram_eff=0.1626
bk0: 932a 2390903i bk1: 790a 2392088i bk2: 1108a 2387299i bk3: 884a 2388989i bk4: 954a 2389045i bk5: 962a 2388623i bk6: 1220a 2386247i bk7: 1086a 2386596i bk8: 1146a 2385311i bk9: 1120a 2385586i bk10: 1426a 2381514i bk11: 1294a 2382018i bk12: 940a 2389478i bk13: 866a 2390995i bk14: 1002a 2390081i bk15: 942a 2390693i 
dram_util_bins: 0 0 0 0 0 0 0 0 0 0
dram_eff_bins: 0 0 0 0 0 0 0 0 0 0
mrqq: max=16 avg=0.0209584

========= L2 cache stats =========
L2_cache_bank[0]: Access = 96558, Miss = 4644, Miss_rate = 0.048, Pending_hits = 27, Reservation_fails = 227
L2_cache_bank[1]: Access = 96605, Miss = 4017, Miss_rate = 0.042, Pending_hits = 23, Reservation_fails = 0
L2_cache_bank[2]: Access = 96551, Miss = 4472, Miss_rate = 0.046, Pending_hits = 52, Reservation_fails = 111
L2_cache_bank[3]: Access = 99469, Miss = 3862, Miss_rate = 0.039, Pending_hits = 35, Reservation_fails = 0
L2_cache_bank[4]: Access = 96970, Miss = 4257, Miss_rate = 0.044, Pending_hits = 34, Reservation_fails = 176
L2_cache_bank[5]: Access = 102266, Miss = 4621, Miss_rate = 0.045, Pending_hits = 26, Reservation_fails = 228
L2_cache_bank[6]: Access = 96980, Miss = 3776, Miss_rate = 0.039, Pending_hits = 30, Reservation_fails = 0
L2_cache_bank[7]: Access = 100039, Miss = 4451, Miss_rate = 0.044, Pending_hits = 51, Reservation_fails = 0
L2_cache_bank[8]: Access = 96954, Miss = 4600, Miss_rate = 0.047, Pending_hits = 19, Reservation_fails = 0
L2_cache_bank[9]: Access = 99503, Miss = 4164, Miss_rate = 0.042, Pending_hits = 25, Reservation_fails = 0
L2_cache_bank[10]: Access = 97545, Miss = 4364, Miss_rate = 0.045, Pending_hits = 35, Reservation_fails = 0
L2_cache_bank[11]: Access = 100575, Miss = 3972, Miss_rate = 0.039, Pending_hits = 43, Reservation_fails = 0
L2_total_cache_accesses = 1180015
L2_total_cache_misses = 51200
L2_total_cache_miss_rate = 0.0434
L2_total_cache_pending_hits = 400
L2_total_cache_reservation_fails = 742
L2_total_cache_breakdown:
	L2_cache_stats_breakdown[GLOBAL_ACC_R][HIT] = 897617
	L2_cache_stats_breakdown[GLOBAL_ACC_R][HIT_RESERVED] = 9
	L2_cache_stats_breakdown[GLOBAL_ACC_R][MISS] = 46836
	L2_cache_stats_breakdown[CONST_ACC_R][HIT] = 11
	L2_cache_stats_breakdown[CONST_ACC_R][HIT_RESERVED] = 3
	L2_cache_stats_breakdown[CONST_ACC_R][MISS] = 1
	L2_cache_stats_breakdown[CONST_ACC_R][RESERVATION_FAIL] = 111
	L2_cache_stats_breakdown[GLOBAL_ACC_W][HIT] = 230715
	L2_cache_stats_breakdown[GLOBAL_ACC_W][HIT_RESERVED] = 376
	L2_cache_stats_breakdown[GLOBAL_ACC_W][MISS] = 4357
	L2_cache_stats_breakdown[GLOBAL_ACC_W][RESERVATION_FAIL] = 228
	L2_cache_stats_breakdown[INST_ACC_R][HIT] = 72
	L2_cache_stats_breakdown[INST_ACC_R][HIT_RESERVED] = 12
	L2_cache_stats_breakdown[INST_ACC_R][MISS] = 6
	L2_cache_stats_breakdown[INST_ACC_R][RESERVATION_FAIL] = 403
L2_cache_data_port_util = 0.176
L2_cache_fill_port_util = 0.009

icnt_total_pkts_mem_to_simt=4958253
icnt_total_pkts_simt_to_mem=1415725
LD_mem_lat_dist  0 0 0 0 0 0 0 0 0 0 0 0 0 0 0 0 0 0 0 0 0 0 0 0 0 0 0
ST_mem_lat_dist  0 0 0 0 0 0 0 0 0 0 0 0 0 0 0 0 0 0 0 0 0 0 0 0 0 0 0
----------------------------Interconnect-DETAILS--------------------------------
Class 0:
Packet latency average = 10.562
	minimum = 6
	maximum = 45
Network latency average = 9.988
	minimum = 6
	maximum = 34
Slowest packet = 2359801
Flit latency average = 8.236
	minimum = 6
	maximum = 30
Slowest flit = 6373113
Fragmentation average = 0
	minimum = 0
	maximum = 0
Injected packet rate average = 0.0169895
	minimum = 0.0110092 (at node 0)
	maximum = 0.0201835 (at node 16)
Accepted packet rate average = 0.0169895
	minimum = 0.0110092 (at node 0)
	maximum = 0.0201835 (at node 16)
Injected flit rate average = 0.0509684
	minimum = 0.0110092 (at node 0)
	maximum = 0.100917 (at node 16)
Accepted flit rate average= 0.0509684
	minimum = 0.0183486 (at node 15)
	maximum = 0.0917431 (at node 1)
Injected packet length average = 3
Accepted packet length average = 3
Total in-flight flits = 0 (0 measured)
====== Overall Traffic Statistics ======
====== Traffic class 0 ======
Packet latency average = 23.5941 (12 samples)
	minimum = 6 (12 samples)
	maximum = 153.667 (12 samples)
Network latency average = 16.429 (12 samples)
	minimum = 6 (12 samples)
	maximum = 114.583 (12 samples)
Flit latency average = 16.8797 (12 samples)
	minimum = 6 (12 samples)
	maximum = 112.333 (12 samples)
Fragmentation average = 0 (12 samples)
	minimum = 0 (12 samples)
	maximum = 0 (12 samples)
Injected packet rate average = 0.0402987 (12 samples)
	minimum = 0.0278571 (12 samples)
	maximum = 0.111099 (12 samples)
Accepted packet rate average = 0.0402987 (12 samples)
	minimum = 0.0278571 (12 samples)
	maximum = 0.111099 (12 samples)
Injected flit rate average = 0.0849183 (12 samples)
	minimum = 0.0414108 (12 samples)
	maximum = 0.192941 (12 samples)
Accepted flit rate average = 0.0849183 (12 samples)
	minimum = 0.0426489 (12 samples)
	maximum = 0.257769 (12 samples)
Injected packet size average = 2.10722 (12 samples)
Accepted packet size average = 2.10722 (12 samples)
Hops average = 1 (12 samples)
----------------------------END-of-Interconnect-DETAILS-------------------------


gpgpu_simulation_time = 0 days, 0 hrs, 11 min, 59 sec (719 sec)
gpgpu_simulation_rate = 18597 (inst/sec)
gpgpu_simulation_rate = 2526 (cycle/sec)
Kernel Executed 6 times
Result stored in result.txt
